! pbe0 d3bj aug-cc-PVTZ RIJCOSX Opt
%maxcore 4000
%basis
 AuxJ "aug-cc-PVTZ/JK"
 AuxC "aug-cc-PVTZ/C"
 newGTO H "cc-PVTZ" end
 newAuxJGTO H "cc-PVTZ/JK" end
 newAuxCGTO H "cc-PVTZ/C" end
end
%cpcm
 SMD true
 SMDsolvent "dichloromethane"
end
%pal nprocs 4 end
* xyz 0 1
N          8.53150        1.77110       -0.32730
C          7.43660        1.47760       -0.15440
C          6.08720        1.11610        0.05720
C          5.72690        0.40840        1.20710
C          4.41130        0.05610        1.41250
C          3.43580        0.40580        0.47200
C          2.09340        0.04450        0.68330
C          0.94310       -0.27390        0.87840
C         -0.38810       -0.63860        1.09410
N         -0.85080       -1.31980        2.11030
C         -2.17840       -1.42880        1.88980
C         -2.49980       -0.79210        0.71040
C         -3.74760       -0.60090        0.00610
C         -4.93830       -1.12140        0.51650
C         -6.12470       -0.93280       -0.16440
C         -6.14320       -0.22680       -1.35740
C         -4.96530        0.29250       -1.86970
C         -3.77390        0.10890       -1.19580
O         -1.34670       -0.28860        0.20720
C          3.80110        1.11470       -0.67780
C          5.11650        1.46730       -0.88440
H          6.48570        0.14240        1.92820
H          4.12030       -0.49060        2.29670
H         -2.80880       -1.94890        2.58050
H         -4.92780       -1.67150        1.44440
H         -7.04190       -1.33830        0.23620
H         -7.07370       -0.08220       -1.88560
H         -4.97620        0.84310       -2.79870
H         -2.85380        0.51200       -1.59170
H          3.04330        1.38110       -1.39930
H          5.40620        2.01410       -1.76970
*


$new_job
! b2plyp aug-cc-PVTZ RIJCOSX SP
%maxcore 4000
%basis
 AuxJ "aug-cc-PVTZ/JK"
 AuxC "aug-cc-PVTZ/C"
 newGTO H "cc-PVTZ" end
 newAuxJGTO H "cc-PVTZ/JK" end
 newAuxCGTO H "cc-PVTZ/C" end
end
%cpcm
 SMD true
 SMDsolvent "dichloromethane"
end
%pal nprocs 4 end
%tddft
 nroots 10
 maxdim 7
end
* xyzfile 0 1
