! pbe0 d3bj aug-cc-PVTZ RIJCOSX Opt
%maxcore 4000
%basis
 AuxJ "aug-cc-PVTZ/JK"
 AuxC "aug-cc-PVTZ/C"
 newGTO H "cc-PVTZ" end
 newAuxJGTO H "cc-PVTZ/JK" end
 newAuxCGTO H "cc-PVTZ/C" end
end
%cpcm
 SMD true
 SMDsolvent "dichloromethane"
end
%pal nprocs 4 end
* xyz 0 1
C         -7.03410        1.20650       -1.69100
N         -6.66200        0.45890       -0.51590
C         -7.70070       -0.02020        0.36160
C         -5.34720        0.21850       -0.23270
C         -4.96660       -0.58250        0.85840
C         -3.64450       -0.82560        1.14140
C         -2.61400       -0.28960        0.35970
C         -1.21750       -0.51730        0.61530
C         -0.68780       -1.24870        1.61730
C          0.71130       -1.43390        1.80860
C          1.40570       -2.14270        2.77290
N          2.72740       -2.02930        2.54440
C          2.83840       -1.27630        1.47580
C          4.06780       -0.89240        0.86730
C          4.14590       -0.11800       -0.23190
C          5.35490        0.30500       -0.89770
C          6.63590       -0.05920       -0.46130
C          7.76090        0.36790       -1.12900
C          7.63870        1.17790       -2.26140
C          8.79140        1.61650       -2.94700
N          9.72830        1.97340       -3.50470
C          6.36980        1.55080       -2.71080
C          5.25140        1.11770       -2.03530
O          1.63760       -0.88320        0.98350
C         -2.99580        0.50800       -0.72640
C         -4.31490        0.75840       -1.01850
H         -6.71680        2.25250       -1.61900
H         -8.11490        1.18640       -1.80760
H         -6.58970        0.76810       -2.58870
H         -8.66160        0.36960        0.03460
H         -7.75610       -1.11410        0.35730
H         -7.53150        0.31650        1.38820
H         -5.71580       -1.02900        1.49140
H         -3.40530       -1.44990        1.98860
H         -0.53300       -0.04500       -0.07890
H         -1.30610       -1.74730        2.34820
H          1.02270       -2.71120        3.59510
H          4.93810       -1.28210        1.37120
H          3.22140        0.23120       -0.67420
H          6.74850       -0.68400        0.41050
H          8.74430        0.08190       -0.78540
H          6.27740        2.17690       -3.58630
H          4.27180        1.40860       -2.38650
H         -2.22940        0.94280       -1.35290
H         -4.54450        1.38710       -1.86310
*


$new_job
! b2plyp aug-cc-PVTZ RIJCOSX SP
%maxcore 4000
%basis
 AuxJ "aug-cc-PVTZ/JK"
 AuxC "aug-cc-PVTZ/C"
 newGTO H "cc-PVTZ" end
 newAuxJGTO H "cc-PVTZ/JK" end
 newAuxCGTO H "cc-PVTZ/C" end
end
%cpcm
 SMD true
 SMDsolvent "dichloromethane"
end
%pal nprocs 4 end
%tddft
 nroots 10
 maxdim 7
end
* xyzfile 0 1
