! pbe0 d3bj aug-cc-PVTZ RIJCOSX Opt
%maxcore 4000
%basis
 AuxJ "aug-cc-PVTZ/JK"
 AuxC "aug-cc-PVTZ/C"
 newGTO H "cc-PVTZ" end
 newAuxJGTO H "cc-PVTZ/JK" end
 newAuxCGTO H "cc-PVTZ/C" end
end
%cpcm
 SMD true
 SMDsolvent "cyclohexane"
end
%pal nprocs 4 end
* xyz 0 1
C         -3.97890        1.23210        1.07080
C         -2.82870        1.21440        1.87350
C         -1.67490        0.63810        1.41990
C         -1.61780        0.05240        0.13770
C         -0.44550       -0.55920       -0.38270
N          0.70570       -0.66470        0.41500
C          0.81560       -1.26880        1.63870
N          2.01320       -1.26050        2.12740
C          2.78430       -0.60900        1.19610
C          4.13910       -0.29760        1.20290
C          4.64440        0.38300        0.11550
C          3.83360        0.75810       -0.95820
C          2.48640        0.46000       -0.98670
C          1.97490       -0.23400        0.09800
C         -0.42020       -1.05060       -1.66550
C         -1.55980       -0.98050       -2.47610
C         -2.71420       -0.42930       -1.99570
C         -2.77180        0.10040       -0.68980
C         -3.94810        0.69290       -0.18410
H         -4.88330        1.68510        1.44900
H         -2.85850        1.66410        2.85480
H         -0.79120        0.64270        2.04100
H         -0.02910       -1.72730        2.11710
H          4.76020       -0.58080        2.03720
H          5.69310        0.64010        0.08960
H          4.27290        1.29640       -1.78490
H          1.85730        0.75760       -1.81280
H          0.48280       -1.50810       -2.04210
H         -1.51660       -1.37810       -3.47880
H         -3.60040       -0.38490       -2.61170
H         -4.82500        0.71630       -0.81500
*


$new_job
! b2plyp aug-cc-PVTZ RIJCOSX SP
%maxcore 4000
%basis
 AuxJ "aug-cc-PVTZ/JK"
 AuxC "aug-cc-PVTZ/C"
 newGTO H "cc-PVTZ" end
 newAuxJGTO H "cc-PVTZ/JK" end
 newAuxCGTO H "cc-PVTZ/C" end
end
%cpcm
 SMD true
 SMDsolvent "cyclohexane"
end
%pal nprocs 4 end
%tddft
 nroots 10
 maxdim 7
end
* xyzfile 0 1
