! pbe0 d3bj aug-cc-PVTZ RIJCOSX Opt
%maxcore 4000
%basis
 AuxJ "aug-cc-PVTZ/JK"
 AuxC "aug-cc-PVTZ/C"
 newGTO H "cc-PVTZ" end
 newAuxJGTO H "cc-PVTZ/JK" end
 newAuxCGTO H "cc-PVTZ/C" end
end
%cpcm
 SMD true
 SMDsolvent "ethanol"
end
%pal nprocs 4 end
* xyz 0 1
C          4.34240       -2.95710        0.32030
C          4.39940       -1.49750       -0.08970
O          3.07370       -0.96940       -0.06030
C          2.94450        0.31210       -0.44130
O          3.87500        0.99250       -0.78700
C          1.52630        0.76470       -0.38050
C          0.50290       -0.09550        0.06190
C         -0.79620        0.36030        0.10960
C         -1.86460       -0.54660        0.60470
O         -2.94130       -0.20670        1.03700
O         -1.48970       -1.82910        0.53070
C         -2.42380       -2.79580        1.00940
C         -1.70820       -4.12640        1.14660
C         -1.07190        1.69810       -0.30050
C         -2.34140        2.28200       -0.31490
C         -2.52120        3.59140       -0.72490
N         -3.77090        4.13980       -0.78540
C         -1.40210        4.35390       -1.14370
C         -0.15530        3.81150       -1.14690
C          0.05330        2.47470       -0.73090
N          1.29990        2.00260       -0.75710
H          5.34250       -3.38020        0.30380
H          3.70900       -3.51380       -0.36510
H          3.93410       -3.04870        1.32330
H          4.80370       -1.38110       -1.10160
H          5.02740       -0.91410        0.59340
H          0.74590       -1.09910        0.36850
H         -2.82700       -2.45410        1.96950
H         -3.25440       -2.86380        0.29710
H         -2.40600       -4.88160        1.49650
H         -1.30280       -4.43320        0.18620
H         -0.89070       -4.04140        1.85770
H         -3.19250        1.70610        0.01000
H         -4.51630        3.65860       -0.31190
H         -3.85220        5.13920       -0.85780
H         -1.56090        5.37430       -1.46290
H          0.70900        4.37300       -1.46350
*


$new_job
! b2plyp aug-cc-PVTZ RIJCOSX SP
%maxcore 4000
%basis
 AuxJ "aug-cc-PVTZ/JK"
 AuxC "aug-cc-PVTZ/C"
 newGTO H "cc-PVTZ" end
 newAuxJGTO H "cc-PVTZ/JK" end
 newAuxCGTO H "cc-PVTZ/C" end
end
%cpcm
 SMD true
 SMDsolvent "ethanol"
end
%pal nprocs 4 end
%tddft
 nroots 10
 maxdim 7
end
* xyzfile 0 1
