! pbe0 d3bj aug-cc-PVTZ RIJCOSX Opt
%maxcore 4000
%basis
 AuxJ "aug-cc-PVTZ/JK"
 AuxC "aug-cc-PVTZ/C"
 newGTO H "cc-PVTZ" end
 newAuxJGTO H "cc-PVTZ/JK" end
 newAuxCGTO H "cc-PVTZ/C" end
end
%cpcm
 SMD true
 SMDsolvent "benzene"
end
%pal nprocs 4 end
* xyz 0 1
C          2.61420        0.87880       -0.00110
C          3.33490       -0.35760        0.51250
O          2.55340       -1.53960        0.33330
C          1.63950       -1.81570        1.26020
O          1.43080       -1.16430        2.24710
C          0.97500       -3.15520        0.99390
S          0.73910       -3.49320       -0.77170
C         -0.11140       -2.03180       -1.20450
N         -0.29130       -1.14190       -0.25240
C         -0.92940        0.00130       -0.48610
C         -0.99420        0.90150        0.67410
C         -0.71300        2.26170        0.56010
C         -0.72420        3.06880        1.68270
C         -1.01680        2.53150        2.92530
C         -1.28570        1.17800        3.04660
C         -1.26780        0.36510        1.93010
C         -1.49470        0.29360       -1.73750
C         -2.32250        1.51000       -2.00410
C         -1.28880       -0.64370       -2.75770
C         -1.80880       -0.41020       -4.05540
N         -2.23260       -0.20680       -5.09960
C         -0.57120       -1.82550       -2.51750
C         -0.33900       -2.76700       -3.53930
N         -0.14510       -3.53380       -4.36910
H          3.26920        1.74140        0.08180
H          1.71900        1.05660        0.58950
H          2.33400        0.74540       -1.04390
H          3.56280       -0.24530        1.57760
H          4.25230       -0.54290       -0.05000
H          0.01610       -3.19650        1.50850
H          1.62330       -3.95390        1.35720
H         -0.44510        2.68090       -0.39810
H         -0.49590        4.11990        1.58640
H         -1.02460        3.16600        3.79890
H         -1.50000        0.75290        4.01500
H         -1.46670       -0.69100        2.01760
H         -1.72600        2.28130       -2.49320
H         -2.72350        1.91680       -1.07910
H         -3.14510        1.26440       -2.67460
*


$new_job
! b2plyp aug-cc-PVTZ RIJCOSX SP
%maxcore 4000
%basis
 AuxJ "aug-cc-PVTZ/JK"
 AuxC "aug-cc-PVTZ/C"
 newGTO H "cc-PVTZ" end
 newAuxJGTO H "cc-PVTZ/JK" end
 newAuxCGTO H "cc-PVTZ/C" end
end
%cpcm
 SMD true
 SMDsolvent "benzene"
end
%pal nprocs 4 end
%tddft
 nroots 10
 maxdim 7
end
* xyzfile 0 1
