! pbe0 d3bj aug-cc-PVTZ RIJCOSX Opt
%maxcore 4000
%basis
 AuxJ "aug-cc-PVTZ/JK"
 AuxC "aug-cc-PVTZ/C"
 newGTO H "cc-PVTZ" end
 newAuxJGTO H "cc-PVTZ/JK" end
 newAuxCGTO H "cc-PVTZ/C" end
end
%cpcm
 SMD true
 SMDsolvent "toluene"
end
%pal nprocs 4 end
* xyz 0 1
F         -2.82230        1.93120        2.27240
B         -2.87250        1.59730        0.94000
F         -3.10140        2.71560        0.16940
O         -3.88800        0.60670        0.70330
C         -3.67360       -0.57010        0.15920
C         -4.76760       -1.42020       -0.06600
C         -4.58200       -2.66240       -0.62250
C         -3.30470       -3.10720       -0.97140
C         -2.22040       -2.29490       -0.75940
C         -2.38380       -1.01770       -0.19820
C         -1.24630       -0.16980        0.02400
N         -0.04540       -0.68310       -0.27570
C          1.04130        0.02180       -0.10550
C          2.30760       -0.66620       -0.37110
C          2.41110       -1.48250       -1.49650
C          3.59010       -2.15040       -1.76530
C          4.66900       -2.03030       -0.90360
C          4.56170       -1.24670        0.23400
C          3.38970       -0.56370        0.50190
C          0.97100        1.38570        0.31870
C          2.08020        2.24500        0.36390
C          1.92480        3.52860        0.82260
Cl         3.28140        4.59110        0.88170
C          0.67100        3.99300        1.24340
C         -0.43070        3.18300        1.16680
C         -0.31450        1.86800        0.68040
N         -1.40320        1.05630        0.53840
H         -5.74730       -1.06570        0.21110
H         -5.43430       -3.30410       -0.79040
H         -3.17550       -4.08720       -1.40370
H         -1.22100       -2.61120       -1.01180
H          1.56240       -1.56830       -2.15710
H          3.66800       -2.76990       -2.64590
H          5.58920       -2.55470       -1.11260
H          5.39390       -1.16910        0.91750
H          3.29790        0.01720        1.40780
H          3.04140        1.89670        0.02160
H          0.57680        5.00230        1.61180
H         -1.39390        3.55570        1.46660
*


$new_job
! b2plyp aug-cc-PVTZ RIJCOSX SP
%maxcore 4000
%basis
 AuxJ "aug-cc-PVTZ/JK"
 AuxC "aug-cc-PVTZ/C"
 newGTO H "cc-PVTZ" end
 newAuxJGTO H "cc-PVTZ/JK" end
 newAuxCGTO H "cc-PVTZ/C" end
end
%cpcm
 SMD true
 SMDsolvent "toluene"
end
%pal nprocs 4 end
%tddft
 nroots 10
 maxdim 7
end
* xyzfile 0 1
