! pbe0 d3bj aug-cc-PVTZ RIJCOSX Opt
%maxcore 4000
%basis
 AuxJ "aug-cc-PVTZ/JK"
 AuxC "aug-cc-PVTZ/C"
 newGTO H "cc-PVTZ" end
 newAuxJGTO H "cc-PVTZ/JK" end
 newAuxCGTO H "cc-PVTZ/C" end
end
%cpcm
 SMD true
 SMDsolvent "chloroform"
end
%pal nprocs 4 end
* xyz 0 1
C          7.62410       -1.04350       -0.22600
O          6.73800       -0.03130       -0.64530
C          5.41200       -0.19280       -0.42720
C          4.58930        0.85130       -0.86400
C          3.22650        0.79460       -0.69430
C          2.62750       -0.31070       -0.08010
C          1.18270       -0.43810        0.13410
C          0.27280        0.50730       -0.28510
C         -1.11550        0.37890       -0.07390
C         -2.02450        1.41450       -0.53190
C         -1.57120        2.56710       -1.19310
C         -2.44290        3.53940       -1.61900
C         -3.80850        3.39260       -1.39710
C         -4.27910        2.27520       -0.75300
C         -3.41040        1.26770       -0.30820
C         -3.88040        0.08310        0.37020
C         -5.23790       -0.14620        0.63260
C         -5.66290       -1.28160        1.27780
C         -4.73070       -2.23130        1.68300
C         -3.39240       -2.03710        1.44190
C         -2.93770       -0.88380        0.78570
N         -1.58910       -0.70350        0.55250
B         -0.58410       -1.83310        1.05510
F         -0.70970       -1.95680        2.42210
F         -0.90260       -3.01650        0.42370
O          0.80730       -1.51790        0.75430
C          3.45810       -1.34690        0.35310
C          4.82640       -1.29790        0.18680
H          7.58000       -1.19090        0.85730
H          8.61840       -0.69620       -0.50210
H          7.41830       -1.99140       -0.73250
H          5.05600        1.70120       -1.33640
H          2.63290        1.62380       -1.04330
H          0.63970        1.37520       -0.79380
H         -0.52140        2.71410       -1.38160
H         -2.06780        4.41600       -2.12500
H         -4.49590        4.15550       -1.73070
H         -5.34000        2.18110       -0.59130
H         -5.97380        0.57860        0.32500
H         -6.71450       -1.43440        1.46810
H         -5.05630       -3.12670        2.18960
H         -2.69160       -2.78410        1.76370
H          3.00420       -2.20220        0.82820
H          5.42700       -2.12210        0.53730
*


$new_job
! b2plyp aug-cc-PVTZ RIJCOSX SP
%maxcore 4000
%basis
 AuxJ "aug-cc-PVTZ/JK"
 AuxC "aug-cc-PVTZ/C"
 newGTO H "cc-PVTZ" end
 newAuxJGTO H "cc-PVTZ/JK" end
 newAuxCGTO H "cc-PVTZ/C" end
end
%cpcm
 SMD true
 SMDsolvent "chloroform"
end
%pal nprocs 4 end
%tddft
 nroots 10
 maxdim 7
end
* xyzfile 0 1
