! pbe0 d3bj aug-cc-PVTZ RIJCOSX Opt
%maxcore 4000
%basis
 AuxJ "aug-cc-PVTZ/JK"
 AuxC "aug-cc-PVTZ/C"
 newGTO H "cc-PVTZ" end
 newAuxJGTO H "cc-PVTZ/JK" end
 newAuxCGTO H "cc-PVTZ/C" end
end
%cpcm
 SMD true
 SMDsolvent "dichloromethane"
end
%pal nprocs 4 end
* xyz 0 1
C         -6.97770       -0.09680       -0.38560
O         -5.79040        0.64870       -0.28340
C         -4.60870       -0.01990       -0.22880
C         -4.46530       -1.39790       -0.26590
C         -3.21280       -1.98460       -0.20390
C         -2.07350       -1.19610       -0.10300
C         -0.76180       -1.79330       -0.03740
C         -0.33200       -3.10160       -0.05350
N          1.01540       -3.13070        0.03360
C          1.39110       -1.87810        0.10040
C          2.74300       -1.42840        0.20380
C          3.09460       -0.13280        0.27050
C          4.44000        0.39070        0.37580
C          5.57460       -0.42540        0.42210
C          6.83610        0.12580        0.52280
C          6.99940        1.50130        0.57980
C          5.88610        2.32460        0.53520
C          4.62300        1.77620        0.43450
O          0.34820       -1.01630        0.06130
C         -2.20900        0.19770       -0.06490
C         -3.45310        0.79130       -0.12610
O         -3.68350        2.13190       -0.09600
C         -2.57940        2.99590        0.00520
H         -7.00160       -0.69420       -1.30320
H         -7.78230        0.63620       -0.41330
H         -7.11740       -0.75410        0.47910
H         -5.33290       -2.03310       -0.34390
H         -3.12670       -3.05840       -0.23440
H         -0.90080       -4.00530       -0.12120
H          3.46300       -2.23100        0.22360
H          2.30730        0.61060        0.24430
H          5.46740       -1.49780        0.37900
H          7.70140       -0.52020        0.55720
H          7.98830        1.92790        0.65850
H          6.00550        3.39740        0.57910
H          3.75850        2.42440        0.40020
H         -1.31490        0.79430        0.01350
H         -1.90400        2.88950       -0.85030
H         -2.02040        2.82940        0.93210
H         -2.99500        4.00230        0.01200
*


$new_job
! b2plyp aug-cc-PVTZ RIJCOSX SP
%maxcore 4000
%basis
 AuxJ "aug-cc-PVTZ/JK"
 AuxC "aug-cc-PVTZ/C"
 newGTO H "cc-PVTZ" end
 newAuxJGTO H "cc-PVTZ/JK" end
 newAuxCGTO H "cc-PVTZ/C" end
end
%cpcm
 SMD true
 SMDsolvent "dichloromethane"
end
%pal nprocs 4 end
%tddft
 nroots 10
 maxdim 7
end
* xyzfile 0 1
