! pbe0 d3bj aug-cc-PVTZ RIJCOSX Opt
%maxcore 4000
%basis
 AuxJ "aug-cc-PVTZ/JK"
 AuxC "aug-cc-PVTZ/C"
 newGTO H "cc-PVTZ" end
 newAuxJGTO H "cc-PVTZ/JK" end
 newAuxCGTO H "cc-PVTZ/C" end
end
%cpcm
 SMD true
 SMDsolvent "tetrahydrofuran"
end
%pal nprocs 4 end
* xyz 0 1
O         -0.50410       -1.13190        2.62280
C         -1.06580       -0.69750        1.65870
O         -2.43760       -0.65950        1.68720
C         -3.19360       -0.19530        0.67020
C         -4.57860       -0.21000        0.82280
C         -5.37930        0.25740       -0.19770
C         -4.81710        0.74290       -1.37710
C         -3.45130        0.76070       -1.53540
C         -2.61480        0.29180       -0.51410
C         -1.19280        0.27700       -0.60130
C         -0.43580       -0.19200        0.42680
C          1.00420       -0.20750        0.33990
N          1.84030       -0.62160        1.23330
C          3.08120       -0.43450        0.69130
C          4.35330       -0.69410        1.18760
C          5.42170       -0.38360        0.37270
C          5.24390        0.16820       -0.89780
C          3.98730        0.43420       -1.41020
C          2.91480        0.12410       -0.59600
O          1.58510        0.26500       -0.81060
H         -4.99500       -0.58920        1.74200
H         -6.45210        0.24670       -0.08120
H         -5.45810        1.10500       -2.16610
H         -3.00400        1.13440       -2.44420
H         -0.71880        0.64540       -1.50010
H          4.48040       -1.11990        2.16880
H          6.42630       -0.57020        0.72150
H          6.11280        0.39370       -1.49740
H          3.84710        0.86020       -2.39070
*


$new_job
! b2plyp aug-cc-PVTZ RIJCOSX SP
%maxcore 4000
%basis
 AuxJ "aug-cc-PVTZ/JK"
 AuxC "aug-cc-PVTZ/C"
 newGTO H "cc-PVTZ" end
 newAuxJGTO H "cc-PVTZ/JK" end
 newAuxCGTO H "cc-PVTZ/C" end
end
%cpcm
 SMD true
 SMDsolvent "tetrahydrofuran"
end
%pal nprocs 4 end
%tddft
 nroots 10
 maxdim 7
end
* xyzfile 0 1
