! pbe0 d3bj aug-cc-PVTZ RIJCOSX Opt
%maxcore 4000
%basis
 AuxJ "aug-cc-PVTZ/JK"
 AuxC "aug-cc-PVTZ/C"
 newGTO H "cc-PVTZ" end
 newAuxJGTO H "cc-PVTZ/JK" end
 newAuxCGTO H "cc-PVTZ/C" end
end
%cpcm
 SMD true
 SMDsolvent "n-hexane"
end
%pal nprocs 4 end
* xyz 0 1
O          0.82890        1.79260       -0.48530
C         -0.26560        1.30500       -0.33080
N         -1.35240        1.95170        0.20210
C         -2.47650        1.14310        0.22430
C         -3.75030        1.42620        0.67090
C         -4.70420        0.42010        0.57760
C         -4.38980       -0.82500        0.05530
C         -3.10680       -1.10710       -0.39280
C         -2.14580       -0.11690       -0.30690
C         -0.73800       -0.07720       -0.66870
C          0.02260       -1.03540       -1.21020
C          1.45240       -0.85530       -1.58960
O          1.79110       -0.94920       -2.74960
C          2.40460       -0.59810       -0.48830
C          2.08750       -0.86080        0.84300
C          3.01390       -0.60530        1.83560
C          4.25730       -0.08440        1.51270
C          4.58120        0.17180        0.18990
C          3.66280       -0.09010       -0.80720
H         -1.33050        2.91150        0.50690
H         -4.00000        2.39430        1.07720
H         -5.70990        0.61530        0.91840
H         -5.15430       -1.58440       -0.00540
H         -2.86740       -2.07650       -0.80180
H         -0.41430       -1.98680       -1.48710
H          1.12160       -1.27270        1.09900
H          2.76680       -0.81010        2.86730
H          4.97400        0.12090        2.29450
H          5.55030        0.57720       -0.06060
H          3.89080        0.10530       -1.84400
*


$new_job
! b2plyp aug-cc-PVTZ RIJCOSX SP
%maxcore 4000
%basis
 AuxJ "aug-cc-PVTZ/JK"
 AuxC "aug-cc-PVTZ/C"
 newGTO H "cc-PVTZ" end
 newAuxJGTO H "cc-PVTZ/JK" end
 newAuxCGTO H "cc-PVTZ/C" end
end
%cpcm
 SMD true
 SMDsolvent "n-hexane"
end
%pal nprocs 4 end
%tddft
 nroots 10
 maxdim 7
end
* xyzfile 0 1
