! pbe0 d3bj aug-cc-PVTZ RIJCOSX Opt
%maxcore 4000
%basis
 AuxJ "aug-cc-PVTZ/JK"
 AuxC "aug-cc-PVTZ/C"
 newGTO H "cc-PVTZ" end
 newAuxJGTO H "cc-PVTZ/JK" end
 newAuxCGTO H "cc-PVTZ/C" end
end
%cpcm
 SMD true
 SMDsolvent "benzene"
end
%pal nprocs 4 end
* xyz 0 1
O         -2.06690       -3.08590       -0.36420
C         -1.17580       -2.28460       -0.22710
O          0.10310       -2.76140       -0.29740
C          1.17430       -1.94970       -0.15270
C          2.45940       -2.51230       -0.23730
C          3.55100       -1.70670       -0.09210
C          3.41880       -0.31580        0.14250
C          4.54240        0.51960        0.29400
C          4.39060        1.86180        0.52040
C          3.11090        2.42450        0.60470
C          1.99740        1.63830        0.46140
C          2.12760        0.26050        0.22890
C          0.98860       -0.58770        0.07500
N         -0.26110       -0.06710        0.14840
C         -1.30650       -0.82780        0.01060
C         -2.61470       -0.18190        0.10010
C         -3.82320       -0.87060       -0.03340
C         -5.02800       -0.20120        0.06010
C         -5.04230        1.16620        0.28840
Cl        -6.54730        2.00030        0.40450
C         -3.85380        1.87190        0.42470
C         -2.65570        1.19970        0.33060
H          2.54680       -3.57220       -0.41570
H          4.54420       -2.12610       -0.15490
H          5.52770        0.08140        0.22820
H          5.25820        2.49430        0.63530
H          3.00780        3.48430        0.78380
H          1.00420        2.05330        0.52320
H         -3.82120       -1.93290       -0.21080
H         -5.95680       -0.73960       -0.04410
H         -3.87610        2.93580        0.60220
H         -1.72370        1.73130        0.43370
*


$new_job
! b2plyp aug-cc-PVTZ RIJCOSX SP
%maxcore 4000
%basis
 AuxJ "aug-cc-PVTZ/JK"
 AuxC "aug-cc-PVTZ/C"
 newGTO H "cc-PVTZ" end
 newAuxJGTO H "cc-PVTZ/JK" end
 newAuxCGTO H "cc-PVTZ/C" end
end
%cpcm
 SMD true
 SMDsolvent "benzene"
end
%pal nprocs 4 end
%tddft
 nroots 10
 maxdim 7
end
* xyzfile 0 1
