! pbe0 d3bj aug-cc-PVTZ RIJCOSX Opt
%maxcore 4000
%basis
 AuxJ "aug-cc-PVTZ/JK"
 AuxC "aug-cc-PVTZ/C"
 newGTO H "cc-PVTZ" end
 newAuxJGTO H "cc-PVTZ/JK" end
 newAuxCGTO H "cc-PVTZ/C" end
end
%cpcm
 SMD true
 SMDsolvent "tetrahydrofuran"
end
%pal nprocs 4 end
* xyz 0 1
F          1.86390       -3.16820        0.64110
B          1.38580       -2.35060       -0.34810
F          1.73450       -2.83000       -1.58640
O         -0.07300       -2.23360       -0.24540
C         -0.73620       -1.12280       -0.10070
C         -2.19840       -1.29130       -0.03910
C         -2.79670       -2.23700       -0.87040
C         -4.16470       -2.42850       -0.83600
C         -4.94650       -1.69400        0.04070
C         -4.35350       -0.77400        0.89060
C         -2.98720       -0.56930        0.85450
C         -0.13170        0.12220       -0.01040
C         -0.89150        1.38760        0.03290
C         -0.67430        2.31580        1.04640
C         -1.37580        3.50810        1.06410
C         -2.29890        3.78710        0.07130
C         -2.51800        2.86880       -0.94260
C         -1.81800        1.67760       -0.96500
C          1.27510        0.16480       -0.04940
S          2.20380        1.63640        0.02720
C          3.67650        0.70560       -0.11780
C          4.98410        1.15770       -0.13870
C          5.99240        0.22000       -0.26280
C          5.70000       -1.13780       -0.36430
C          4.39780       -1.59410       -0.34330
C          3.37490       -0.66100       -0.21710
N          2.02780       -0.91830       -0.17630
H         -2.17480       -2.80700       -1.54340
H         -4.62180       -3.15530       -1.49060
H         -6.01530       -1.84520        0.06960
H         -4.95840       -0.21540        1.58910
H         -2.52930        0.13140        1.53480
H          0.03060        2.09420        1.83450
H         -1.20280        4.21890        1.85840
H         -2.84630        4.71760        0.08680
H         -3.23420        3.08380       -1.72170
H         -1.98260        0.96380       -1.75860
H          5.20090        2.21100       -0.06080
H          7.02020        0.54790       -0.28160
H          6.50720       -1.84700       -0.46120
H          4.15440       -2.64020       -0.42110
*


$new_job
! b2plyp aug-cc-PVTZ RIJCOSX SP
%maxcore 4000
%basis
 AuxJ "aug-cc-PVTZ/JK"
 AuxC "aug-cc-PVTZ/C"
 newGTO H "cc-PVTZ" end
 newAuxJGTO H "cc-PVTZ/JK" end
 newAuxCGTO H "cc-PVTZ/C" end
end
%cpcm
 SMD true
 SMDsolvent "tetrahydrofuran"
end
%pal nprocs 4 end
%tddft
 nroots 10
 maxdim 7
end
* xyzfile 0 1
