! pbe0 d3bj aug-cc-PVTZ RIJCOSX Opt
%maxcore 4000
%basis
 AuxJ "aug-cc-PVTZ/JK"
 AuxC "aug-cc-PVTZ/C"
 newGTO H "cc-PVTZ" end
 newAuxJGTO H "cc-PVTZ/JK" end
 newAuxCGTO H "cc-PVTZ/C" end
end
%cpcm
 SMD true
 SMDsolvent "cyclohexane"
end
%pal nprocs 4 end
* xyz 0 1
C         -6.70180       -0.39800       -0.41900
O         -5.84190       -0.01690        0.62800
C         -4.50140       -0.04830        0.41730
C         -3.88370       -0.43320       -0.76940
C         -2.50590       -0.42330       -0.86190
C         -1.69770       -0.03490        0.20910
C         -0.26280       -0.04620        0.04830
C          0.65080        0.29790        0.97310
C          2.05980        0.25890        0.73370
N          2.96970        0.58440        1.60280
C          4.16650        0.40200        0.96390
C          5.47740        0.58650        1.38570
C          6.47820        0.30590        0.47820
C          6.19720       -0.14480       -0.81200
C          4.89940       -0.33500       -1.25170
C          3.89590       -0.05490       -0.34520
O          2.55020       -0.14190       -0.47920
C         -2.33480        0.34950        1.39650
C         -3.70440        0.34290        1.49840
H         -7.71100       -0.29370       -0.02370
H         -6.53610       -1.43830       -0.71650
H         -6.58630        0.25350       -1.29100
H         -4.46530       -0.74120       -1.62420
H         -2.04210       -0.72490       -1.79030
H          0.09490       -0.36710       -0.92250
H          0.38710        0.62910        1.96460
H          5.68900        0.93480        2.38320
H          7.50970        0.43730        0.76990
H          7.01530       -0.35090       -1.48570
H          4.67790       -0.68330       -2.24780
H         -1.74700        0.65600        2.24680
H         -4.19690        0.63830        2.41150
*


$new_job
! b2plyp aug-cc-PVTZ RIJCOSX SP
%maxcore 4000
%basis
 AuxJ "aug-cc-PVTZ/JK"
 AuxC "aug-cc-PVTZ/C"
 newGTO H "cc-PVTZ" end
 newAuxJGTO H "cc-PVTZ/JK" end
 newAuxCGTO H "cc-PVTZ/C" end
end
%cpcm
 SMD true
 SMDsolvent "cyclohexane"
end
%pal nprocs 4 end
%tddft
 nroots 10
 maxdim 7
end
* xyzfile 0 1
