! pbe0 d3bj aug-cc-PVTZ RIJCOSX Opt
%maxcore 4000
%basis
 AuxJ "aug-cc-PVTZ/JK"
 AuxC "aug-cc-PVTZ/C"
 newGTO H "cc-PVTZ" end
 newAuxJGTO H "cc-PVTZ/JK" end
 newAuxCGTO H "cc-PVTZ/C" end
end
%cpcm
 SMD true
 SMDsolvent "benzene"
end
%pal nprocs 4 end
* xyz 0 1
C         -2.55630       -4.25590        0.07290
C         -2.08370       -2.83920       -0.01710
C         -2.97470       -1.81460       -0.25660
C         -2.53790       -0.48280       -0.34120
C         -3.44060        0.64700       -0.59470
C         -4.82000        0.49930       -0.73850
C         -5.62420        1.59810       -0.97760
C         -5.07220        2.86390       -1.07710
C         -3.70340        3.02540       -0.93470
C         -2.89820        1.93030       -0.69670
N         -1.25430       -0.17960       -0.19350
C         -0.38430       -1.14940        0.03560
C         -0.71710       -2.52080        0.14020
C          0.31300       -3.47470        0.38930
C          1.60680       -3.08710        0.52670
C          1.93910       -1.71980        0.42260
N          3.10590       -1.12610        0.51960
C          2.87690        0.20440        0.34170
C          3.96390        1.16750        0.38710
C          5.26470        0.71930        0.61550
C          6.31540        1.61400        0.66340
C          6.08490        2.96870        0.48450
C          4.79590        3.42280        0.25710
C          3.74060        2.53200        0.20800
C          1.52790        0.42490        0.12990
N          0.93090       -0.79480        0.18070
H         -2.31410       -4.67670        1.04800
H         -2.07370       -4.86750       -0.68840
H         -3.63250       -4.31020       -0.07010
H         -4.01890       -2.05220       -0.38070
H         -5.28280       -0.47250       -0.66390
H         -6.69080        1.46490       -1.08680
H         -5.70530        3.71870       -1.26390
H         -3.26490        4.00980       -1.01000
H         -1.83200        2.04350       -0.58480
H          0.04960       -4.51720        0.46730
H          2.40270       -3.78820        0.71460
H          5.42390       -0.33870        0.75240
H          7.31960        1.25680        0.84100
H          6.90650        3.66930        0.52200
H          4.61360        4.47880        0.11720
H          2.73980        2.89550        0.03030
H          0.96020        1.31320       -0.04620
*


$new_job
! b2plyp aug-cc-PVTZ RIJCOSX SP
%maxcore 4000
%basis
 AuxJ "aug-cc-PVTZ/JK"
 AuxC "aug-cc-PVTZ/C"
 newGTO H "cc-PVTZ" end
 newAuxJGTO H "cc-PVTZ/JK" end
 newAuxCGTO H "cc-PVTZ/C" end
end
%cpcm
 SMD true
 SMDsolvent "benzene"
end
%pal nprocs 4 end
%tddft
 nroots 10
 maxdim 7
end
* xyzfile 0 1
