! pbe0 d3bj aug-cc-PVTZ RIJCOSX Opt
%maxcore 4000
%basis
 AuxJ "aug-cc-PVTZ/JK"
 AuxC "aug-cc-PVTZ/C"
 newGTO H "cc-PVTZ" end
 newAuxJGTO H "cc-PVTZ/JK" end
 newAuxCGTO H "cc-PVTZ/C" end
end
%cpcm
 SMD true
 SMDsolvent "acetonitrile"
end
%pal nprocs 4 end
* xyz 0 1
C         -4.56700        1.35960       -0.26190
O         -3.57530        0.79040       -1.08160
C         -2.42750        0.34820       -0.50130
C         -1.49370       -0.21390       -1.39430
C         -0.28690       -0.70520       -0.96550
C          0.00670       -0.63690        0.39610
C          1.12100       -1.02020        1.21670
C          2.37850       -1.65840        0.73830
C          3.07530       -0.82760       -0.33290
O          3.61470       -1.29770       -1.31340
N          3.06550        0.50020       -0.08900
N          3.74710        1.41960       -0.91110
C          0.77700       -0.66470        2.47990
O         -0.45580       -0.09420        2.54390
C         -0.93070       -0.07330        1.27760
C         -2.15510        0.42630        0.85570
H         -5.38130        1.63270       -0.93100
H         -4.20080        2.25670        0.24740
H         -4.93310        0.64360        0.48080
H         -1.76730       -0.24450       -2.43680
H          0.41950       -1.13350       -1.65940
H          2.16890       -2.63640        0.29920
H          3.07100       -1.79910        1.57120
H          2.67150        0.88770        0.75480
H          4.48240        0.89580       -1.38810
H          3.11310        1.76370       -1.63540
H          1.30260       -0.76610        3.40980
H         -2.84030        0.84760        1.57130
*


$new_job
! b2plyp aug-cc-PVTZ RIJCOSX SP
%maxcore 4000
%basis
 AuxJ "aug-cc-PVTZ/JK"
 AuxC "aug-cc-PVTZ/C"
 newGTO H "cc-PVTZ" end
 newAuxJGTO H "cc-PVTZ/JK" end
 newAuxCGTO H "cc-PVTZ/C" end
end
%cpcm
 SMD true
 SMDsolvent "acetonitrile"
end
%pal nprocs 4 end
%tddft
 nroots 10
 maxdim 7
end
* xyzfile 0 1
