! pbe0 d3bj aug-cc-PVTZ RIJCOSX Opt
%maxcore 4000
%basis
 AuxJ "aug-cc-PVTZ/JK"
 AuxC "aug-cc-PVTZ/C"
 newGTO H "cc-PVTZ" end
 newAuxJGTO H "cc-PVTZ/JK" end
 newAuxCGTO H "cc-PVTZ/C" end
end
%cpcm
 SMD true
 SMDsolvent "cyclohexane"
end
%pal nprocs 4 end
* xyz 0 1
N          1.38310       -3.65340        0.06630
C          0.93720       -2.59590        0.07140
C          0.43360       -1.28100        0.06840
C         -0.92000       -0.98790        0.29750
N         -1.97290       -1.79940        0.55170
C         -3.01240       -1.00260        0.68570
C         -4.35530       -1.32250        0.95760
C         -5.26990       -0.31510        1.05310
C         -4.88460        1.03710        0.88280
C         -3.58850        1.34710        0.62030
N         -2.68110        0.34840        0.52550
C         -1.33570        0.38330        0.27400
N         -0.60310        1.45520        0.06010
C          0.67760        1.18130       -0.15690
N          1.65090        2.08380       -0.40310
C          2.75640        1.39300       -0.55710
C          4.05750        1.85270       -0.83150
C          5.07100        0.94930       -0.95300
C          4.82380       -0.43610       -0.80600
C          3.56870       -0.88400       -0.54090
N          2.55620        0.00860       -0.41880
C          1.22300       -0.15520       -0.16010
H         -4.61540       -2.36000        1.08160
H         -6.30440       -0.54020        1.26090
H         -5.62040        1.81990        0.96160
H         -3.20870        2.34670        0.47690
H          4.20480        2.91410       -0.93640
H          6.07540        1.28200       -1.16330
H          5.63150       -1.14190       -0.90380
H          3.32160       -1.92740       -0.41880
*


$new_job
! b2plyp aug-cc-PVTZ RIJCOSX SP
%maxcore 4000
%basis
 AuxJ "aug-cc-PVTZ/JK"
 AuxC "aug-cc-PVTZ/C"
 newGTO H "cc-PVTZ" end
 newAuxJGTO H "cc-PVTZ/JK" end
 newAuxCGTO H "cc-PVTZ/C" end
end
%cpcm
 SMD true
 SMDsolvent "cyclohexane"
end
%pal nprocs 4 end
%tddft
 nroots 10
 maxdim 7
end
* xyzfile 0 1
