! pbe0 d3bj aug-cc-PVTZ RIJCOSX Opt
%maxcore 4000
%basis
 AuxJ "aug-cc-PVTZ/JK"
 AuxC "aug-cc-PVTZ/C"
 newGTO H "cc-PVTZ" end
 newAuxJGTO H "cc-PVTZ/JK" end
 newAuxCGTO H "cc-PVTZ/C" end
end
%cpcm
 SMD true
 SMDsolvent "n-hexane"
end
%pal nprocs 4 end
* xyz 0 1
C          7.61050       -0.93900        0.75700
N          6.81730        0.00170        0.00580
C          7.49850        0.95220       -0.83680
C          5.45230       -0.02610        0.07140
C          4.78020       -0.81680        1.01840
C          3.40820       -0.83520        1.08000
C          2.61270       -0.07770        0.20930
C          1.18190       -0.14430        0.32760
C          0.27220        0.47590       -0.45830
C         -1.14710        0.39710       -0.32710
C         -1.83590       -0.22460        0.66140
C         -3.25700       -0.30250        0.78110
C         -4.16510        0.13820       -0.11770
C         -5.59900        0.05800        0.00230
C         -6.25670       -0.40530        1.15130
C         -7.62980       -0.46040        1.21270
C         -8.39930       -0.05180        0.11960
C         -9.80650       -0.10760        0.18150
N        -10.95220       -0.15310        0.23230
C         -7.76300        0.41500       -1.03380
C         -6.38960        0.46790       -1.08270
C          3.28730        0.70880       -0.73340
C          4.65900        0.73690       -0.80270
H          7.62920       -0.69240        1.82480
H          8.63280       -0.92820        0.38560
H          7.22070       -1.95280        0.63980
H          7.42650        0.68280       -1.89700
H          8.55080        0.98850       -0.56320
H          7.08210        1.95270       -0.70160
H          5.33700       -1.41190        1.72400
H          2.92660       -1.45250        1.82590
H          0.82750       -0.77370        1.13380
H          0.62210        1.08660       -1.27970
H         -1.70600        0.90460       -1.10220
H         -1.28160       -0.70550        1.45580
H         -3.60950       -0.77930        1.68640
H         -3.81490        0.58720       -1.03750
H         -5.68360       -0.71960        2.00950
H         -8.12460       -0.81750        2.10450
H         -8.35750        0.73170       -1.87860
H         -5.90390        0.83010       -1.97780
H          2.72510        1.31160       -1.43010
H          5.12230        1.35080       -1.55800
*


$new_job
! b2plyp aug-cc-PVTZ RIJCOSX SP
%maxcore 4000
%basis
 AuxJ "aug-cc-PVTZ/JK"
 AuxC "aug-cc-PVTZ/C"
 newGTO H "cc-PVTZ" end
 newAuxJGTO H "cc-PVTZ/JK" end
 newAuxCGTO H "cc-PVTZ/C" end
end
%cpcm
 SMD true
 SMDsolvent "n-hexane"
end
%pal nprocs 4 end
%tddft
 nroots 10
 maxdim 7
end
* xyzfile 0 1
