! pbe0 d3bj aug-cc-PVTZ RIJCOSX Opt
%maxcore 4000
%basis
 AuxJ "aug-cc-PVTZ/JK"
 AuxC "aug-cc-PVTZ/C"
 newGTO H "cc-PVTZ" end
 newAuxJGTO H "cc-PVTZ/JK" end
 newAuxCGTO H "cc-PVTZ/C" end
end
%cpcm
 SMD true
 SMDsolvent "dichloromethane"
end
%pal nprocs 4 end
* xyz 0 1
C          4.33230        0.54230        0.95150
C          3.74870        0.68240       -0.45580
N          2.31000        0.63720       -0.45650
C          1.54060       -0.46100       -0.36420
C          2.09830       -1.75780       -0.41420
C          1.30830       -2.87720       -0.36440
C         -0.07180       -2.75630       -0.25490
C         -0.65950       -1.50420       -0.19000
C          0.12430       -0.33180       -0.23980
C         -0.49750        0.97920       -0.14360
O          0.13690        2.03900       -0.16860
C         -1.96860        1.02580        0.00060
C         -2.59170        2.26820        0.09730
C         -3.96410        2.36060        0.22990
C         -4.73760        1.20900        0.26720
C         -4.13210       -0.02930        0.17080
C         -2.74950       -0.13280        0.03750
C         -2.13320       -1.46820       -0.06260
O         -2.80210       -2.48640       -0.03790
H          3.95290        1.33360        1.59340
H          4.05470       -0.41480        1.38680
H          5.41630        0.61060        0.91620
H          4.04090        1.64770       -0.87610
H          4.14910       -0.09920       -1.10830
H          1.80280        1.51360       -0.33500
H          3.16740       -1.86970       -0.49520
H          1.76070       -3.85710       -0.40750
H         -0.70810       -3.62650       -0.21390
H         -1.97370        3.15340        0.06540
H         -4.43390        3.33020        0.30440
H         -5.81010        1.28010        0.37110
H         -4.71060       -0.94090        0.19650
*


$new_job
! b2plyp aug-cc-PVTZ RIJCOSX SP
%maxcore 4000
%basis
 AuxJ "aug-cc-PVTZ/JK"
 AuxC "aug-cc-PVTZ/C"
 newGTO H "cc-PVTZ" end
 newAuxJGTO H "cc-PVTZ/JK" end
 newAuxCGTO H "cc-PVTZ/C" end
end
%cpcm
 SMD true
 SMDsolvent "dichloromethane"
end
%pal nprocs 4 end
%tddft
 nroots 10
 maxdim 7
end
* xyzfile 0 1
