! pbe0 d3bj aug-cc-PVTZ RIJCOSX Opt
%maxcore 4000
%basis
 AuxJ "aug-cc-PVTZ/JK"
 AuxC "aug-cc-PVTZ/C"
 newGTO H "cc-PVTZ" end
 newAuxJGTO H "cc-PVTZ/JK" end
 newAuxCGTO H "cc-PVTZ/C" end
end
%cpcm
 SMD true
 SMDsolvent "ethanol"
end
%pal nprocs 4 end
* xyz 0 1
C          4.63740       -0.81200       -0.47210
N          3.87370        0.28530        0.06560
C          4.55950        1.53100        0.31480
C          2.50190        0.25090        0.01950
C          1.73550        1.33410        0.51840
C          0.37140        1.30950        0.52980
C         -0.35820        0.20380        0.04660
C         -1.78550        0.13870        0.03170
C         -2.41560       -0.96880       -0.51930
C         -1.64680       -2.02550       -1.03570
C         -0.28380       -1.98930       -1.01580
C          0.39950       -0.87510       -0.48410
C          1.80250       -0.83180       -0.48610
C         -3.91070       -1.10280       -0.60780
C         -4.64400       -0.13450        0.30770
C         -4.04320        1.25330        0.12770
C         -2.60550        1.22470        0.60660
O         -2.21110        2.03300        1.42130
H          4.30540       -1.75210       -0.02750
H          5.68770       -0.67790       -0.22170
H          4.54720       -0.88900       -1.56320
H          5.62730        1.39180        0.16320
H          4.40630        1.86070        1.34640
H          4.22030        2.32410       -0.36020
H          2.23300        2.20730        0.90750
H         -0.16070        2.15780        0.92620
H         -2.16050       -2.88260       -1.44910
H          0.29170       -2.81620       -1.40790
H          2.31630       -1.67850       -0.91250
H         -4.20310       -0.90590       -1.64640
H         -4.19730       -2.13320       -0.38320
H         -5.71060       -0.12380        0.07400
H         -4.52970       -0.44560        1.34900
H         -4.06200        1.53200       -0.92930
H         -4.58770        2.00610        0.69950
*


$new_job
! b2plyp aug-cc-PVTZ RIJCOSX SP
%maxcore 4000
%basis
 AuxJ "aug-cc-PVTZ/JK"
 AuxC "aug-cc-PVTZ/C"
 newGTO H "cc-PVTZ" end
 newAuxJGTO H "cc-PVTZ/JK" end
 newAuxCGTO H "cc-PVTZ/C" end
end
%cpcm
 SMD true
 SMDsolvent "ethanol"
end
%pal nprocs 4 end
%tddft
 nroots 10
 maxdim 7
end
* xyzfile 0 1
