! pbe0 d3bj aug-cc-PVTZ RIJCOSX Opt
%maxcore 4000
%basis
 AuxJ "aug-cc-PVTZ/JK"
 AuxC "aug-cc-PVTZ/C"
 newGTO H "cc-PVTZ" end
 newAuxJGTO H "cc-PVTZ/JK" end
 newAuxCGTO H "cc-PVTZ/C" end
end
%cpcm
 SMD true
 SMDsolvent "benzene"
end
%pal nprocs 4 end
* xyz 0 1
O         -0.30180        1.74520       -2.05530
C          0.29250        1.10200       -1.22700
O          1.65440        1.12040       -1.28640
C          2.41500        0.42700       -0.40370
C          3.80050        0.47870       -0.50690
C          4.56380       -0.23210        0.39650
C          3.96180       -0.99160        1.39880
C          2.59170       -1.04630        1.50620
C          1.79560       -0.33340        0.60120
N          0.43780       -0.37750        0.69740
C         -0.30330        0.28070       -0.13780
C         -1.75170        0.17970        0.03650
C         -2.67490        0.85890       -0.76250
C         -4.03150        0.71980       -0.54150
C         -4.48430       -0.09970        0.48110
Cl        -6.17780       -0.27210        0.75500
C         -3.58470       -0.78450        1.28840
C         -2.23350       -0.64250        1.06420
H          4.24760        1.07150       -1.28880
H          5.64000       -0.19870        0.32490
H          4.57890       -1.53950        2.09420
H          2.10240       -1.62580        2.27230
H         -2.33280        1.49770       -1.55930
H         -4.73880        1.24710       -1.16220
H         -3.94760       -1.41970        2.08130
H         -1.51950       -1.16560        1.67980
*


$new_job
! b2plyp aug-cc-PVTZ RIJCOSX SP
%maxcore 4000
%basis
 AuxJ "aug-cc-PVTZ/JK"
 AuxC "aug-cc-PVTZ/C"
 newGTO H "cc-PVTZ" end
 newAuxJGTO H "cc-PVTZ/JK" end
 newAuxCGTO H "cc-PVTZ/C" end
end
%cpcm
 SMD true
 SMDsolvent "benzene"
end
%pal nprocs 4 end
%tddft
 nroots 10
 maxdim 7
end
* xyzfile 0 1
