! pbe0 d3bj aug-cc-PVTZ RIJCOSX Opt
%maxcore 4000
%basis
 AuxJ "aug-cc-PVTZ/JK"
 AuxC "aug-cc-PVTZ/C"
 newGTO H "cc-PVTZ" end
 newAuxJGTO H "cc-PVTZ/JK" end
 newAuxCGTO H "cc-PVTZ/C" end
end
%cpcm
 SMD true
 SMDsolvent "toluene"
end
%pal nprocs 4 end
* xyz 0 1
C          5.07160        3.40350       -0.99540
O          3.78730        2.91480       -0.69200
C          3.58220        1.56560       -0.71090
C          4.56860        0.61320       -0.99850
C          4.26870       -0.72980       -0.99640
C          2.97730       -1.18460       -0.70480
C          1.98360       -0.22760       -0.41320
C          2.30010        1.13550       -0.42360
C          0.64240       -0.65790       -0.12060
N         -0.26980        0.30400        0.06500
C         -1.51140       -0.00280        0.33810
C         -2.44940        1.12090        0.42190
C         -2.05970        2.27930        1.09200
C         -2.92130        3.35570        1.17900
C         -4.16980        3.29710        0.58020
C         -4.55020        2.16110       -0.11560
C         -3.69840        1.07470       -0.19500
C         -1.90550       -1.36010        0.53690
C         -3.17510       -1.75120        0.99680
C         -3.48530       -3.07950        1.12020
C         -2.53530       -4.05300        0.79110
C         -1.27380       -3.70360        0.38230
C         -0.92090       -2.34850        0.26890
N          0.34360       -1.96130       -0.07940
B          1.47240       -3.07530       -0.38430
F          1.00550       -3.84430       -1.42540
F          1.59210       -3.83580        0.75970
O          2.73520       -2.47960       -0.72650
H          5.37910        3.12890       -2.00960
H          5.81930        3.04860       -0.27870
H          4.99570        4.48760       -0.92580
H          5.57760        0.91760       -1.22800
H          5.02580       -1.46400       -1.22030
H          1.52890        1.85580       -0.20830
H         -1.08330        2.31240        1.54960
H         -2.61800        4.24520        1.71060
H         -4.84180        4.13960        0.64620
H         -5.51390        2.12190       -0.60140
H         -3.98450        0.20450       -0.76740
H         -3.89100       -0.99040        1.26710
H         -4.46020       -3.37900        1.47400
H         -2.79360       -5.09720        0.87910
H         -0.54500       -4.46250        0.16210
*


$new_job
! b2plyp aug-cc-PVTZ RIJCOSX SP
%maxcore 4000
%basis
 AuxJ "aug-cc-PVTZ/JK"
 AuxC "aug-cc-PVTZ/C"
 newGTO H "cc-PVTZ" end
 newAuxJGTO H "cc-PVTZ/JK" end
 newAuxCGTO H "cc-PVTZ/C" end
end
%cpcm
 SMD true
 SMDsolvent "toluene"
end
%pal nprocs 4 end
%tddft
 nroots 10
 maxdim 7
end
* xyzfile 0 1
