! pbe0 d3bj aug-cc-PVTZ RIJCOSX Opt
%maxcore 4000
%basis
 AuxJ "aug-cc-PVTZ/JK"
 AuxC "aug-cc-PVTZ/C"
 newGTO H "cc-PVTZ" end
 newAuxJGTO H "cc-PVTZ/JK" end
 newAuxCGTO H "cc-PVTZ/C" end
end
%cpcm
 SMD true
 SMDsolvent "n-hexane"
end
%pal nprocs 4 end
* xyz 0 1
O          3.79720        0.65800        2.13210
C          4.01650        0.13910        0.89040
C          5.30050       -0.11900        0.43320
C          5.50530       -0.64290       -0.83110
C          4.42190       -0.91400       -1.65130
C          3.14160       -0.65950       -1.20380
C          2.90990       -0.13150        0.06680
C          1.57340        0.14480        0.54400
N          0.56190       -0.02290       -0.21270
N         -0.67740       -0.01250        0.02550
C         -1.58040        0.85530       -0.19160
C         -2.98630        0.56420       -0.02750
C         -3.92440        1.57110       -0.25970
C         -5.27870        1.34840       -0.11210
C         -5.72840        0.09740        0.27560
C         -4.81920       -0.91790        0.51260
C         -3.45460       -0.70370        0.36800
O         -2.55960       -1.69290        0.60160
H          4.64210        0.78570        2.58000
H          6.14530        0.09370        1.07660
H          6.51120       -0.83800       -1.17150
H          4.58000       -1.32370       -2.63750
H          2.28610       -0.86640       -1.82780
H          1.47750        0.51110        1.56520
H         -1.33130        1.87310       -0.50490
H         -3.57000        2.54590       -0.56270
H         -5.98250        2.14510       -0.29860
H         -6.78470       -0.09100        0.39470
H         -5.16850       -1.89700        0.81650
H         -3.02450       -2.50010        0.85630
*


$new_job
! b2plyp aug-cc-PVTZ RIJCOSX SP
%maxcore 4000
%basis
 AuxJ "aug-cc-PVTZ/JK"
 AuxC "aug-cc-PVTZ/C"
 newGTO H "cc-PVTZ" end
 newAuxJGTO H "cc-PVTZ/JK" end
 newAuxCGTO H "cc-PVTZ/C" end
end
%cpcm
 SMD true
 SMDsolvent "n-hexane"
end
%pal nprocs 4 end
%tddft
 nroots 10
 maxdim 7
end
* xyzfile 0 1
