! pbe0 d3bj aug-cc-PVTZ RIJCOSX Opt
%maxcore 4000
%basis
 AuxJ "aug-cc-PVTZ/JK"
 AuxC "aug-cc-PVTZ/C"
 newGTO H "cc-PVTZ" end
 newAuxJGTO H "cc-PVTZ/JK" end
 newAuxCGTO H "cc-PVTZ/C" end
end
%cpcm
 SMD true
 SMDsolvent "acetonitrile"
end
%pal nprocs 4 end
* xyz 0 1
C          7.32110       -0.79330       -0.76530
O          6.53290       -0.59320        0.38580
C          5.19240       -0.47860        0.24940
C          4.49900       -0.54180       -0.95890
C          3.12660       -0.41040       -0.97350
C          2.40620       -0.21280        0.20560
C          0.97160       -0.07990        0.12650
N          0.28130       -0.14870       -0.99610
C         -1.01390        0.02200       -0.65730
C         -1.12620        0.21230        0.72510
N          0.14970        0.13180        1.20180
C         -2.36470        0.41480        1.38690
C         -2.67950        0.28160        2.68860
C         -4.08880        0.38000        3.01770
O         -4.61130        0.29960        4.09380
S         -5.01880        0.60670        1.49650
C         -3.50740        0.78320        0.46790
C         -3.38690        2.25620        0.06630
C         -3.48780       -0.13480       -0.76930
C         -3.68170       -1.60230       -0.37790
S         -4.77080        0.28510       -2.01380
C         -3.58940        0.35200       -3.36980
O         -3.92310        0.51810       -4.50810
C         -2.25090        0.21400       -2.82180
C         -2.17370        0.03020       -1.49590
C          3.10660       -0.15120        1.41470
C          4.47480       -0.28210        1.43430
H          7.05780       -1.72560       -1.27390
H          7.22920        0.04350       -1.46410
H          8.34830       -0.85460       -0.41000
H          5.02130       -0.69290       -1.88990
H          2.58020       -0.45830       -1.90160
H          0.42990        0.23780        2.16210
H         -1.98310        0.06280        3.48060
H         -4.24020        2.53760       -0.54580
H         -3.37390        2.88390        0.95470
H         -2.47310        2.42500       -0.50100
H         -4.65340       -1.73070        0.09270
H         -2.90560       -1.92130        0.31580
H         -3.63780       -2.22960       -1.26520
H         -1.39930        0.30280       -3.47370
H          2.58740       -0.00190        2.35000
H          5.02510       -0.23660        2.36060
*


$new_job
! b2plyp aug-cc-PVTZ RIJCOSX SP
%maxcore 4000
%basis
 AuxJ "aug-cc-PVTZ/JK"
 AuxC "aug-cc-PVTZ/C"
 newGTO H "cc-PVTZ" end
 newAuxJGTO H "cc-PVTZ/JK" end
 newAuxCGTO H "cc-PVTZ/C" end
end
%cpcm
 SMD true
 SMDsolvent "acetonitrile"
end
%pal nprocs 4 end
%tddft
 nroots 10
 maxdim 7
end
* xyzfile 0 1
