! pbe0 d3bj aug-cc-PVTZ RIJCOSX Opt
%maxcore 4000
%basis
 AuxJ "aug-cc-PVTZ/JK"
 AuxC "aug-cc-PVTZ/C"
 newGTO H "cc-PVTZ" end
 newAuxJGTO H "cc-PVTZ/JK" end
 newAuxCGTO H "cc-PVTZ/C" end
end
%cpcm
 SMD true
 SMDsolvent "dichloromethane"
end
%pal nprocs 4 end
* xyz 0 1
C          4.26690        0.06470       -0.89240
O          3.63650        0.01490        0.37020
C          2.25180        0.00860        0.30110
C          1.56960       -1.21350        0.25500
C          2.26300       -2.45010        0.30320
C          1.59010       -3.63170        0.26480
C          0.18260       -3.64260        0.18820
C         -0.51760       -2.47570        0.14900
C          0.14310       -1.21920        0.16950
C         -0.55970       -0.00640        0.12590
C         -2.03350       -0.01620        0.00760
C         -2.64340       -0.43860       -1.16960
C         -4.02210       -0.44770       -1.28030
C         -4.80810       -0.03940       -0.21570
C         -4.20920        0.38010        0.96040
C         -2.83050        0.39400        1.07200
C          0.12840        1.21360        0.19570
C         -0.54260        2.46380        0.14180
C          0.14280        3.63740        0.21970
C          1.54540        3.64030        0.36090
C          2.23070        2.46580        0.39450
C          1.55390        1.22260        0.29760
H          5.33840        0.06870       -0.69820
H          3.99080        0.97120       -1.44310
H          4.00870       -0.80840       -1.50250
H          3.33880       -2.42550        0.39230
H          2.12520       -4.56910        0.30390
H         -0.33700       -4.58960        0.17150
H         -1.59660       -2.49000        0.11000
H         -2.02760       -0.75400       -2.00000
H         -4.48470       -0.77500       -2.20020
H         -5.88460       -0.04850       -0.30230
H         -4.81840        0.69760        1.79430
H         -2.36060        0.71620        1.99030
H         -1.61720        2.46790        0.03550
H         -0.38450        4.57930        0.17760
H          2.06760        4.58260        0.43930
H          3.30390        2.45140        0.51250
*


$new_job
! b2plyp aug-cc-PVTZ RIJCOSX SP
%maxcore 4000
%basis
 AuxJ "aug-cc-PVTZ/JK"
 AuxC "aug-cc-PVTZ/C"
 newGTO H "cc-PVTZ" end
 newAuxJGTO H "cc-PVTZ/JK" end
 newAuxCGTO H "cc-PVTZ/C" end
end
%cpcm
 SMD true
 SMDsolvent "dichloromethane"
end
%pal nprocs 4 end
%tddft
 nroots 10
 maxdim 7
end
* xyzfile 0 1
