! pbe0 d3bj aug-cc-PVTZ RIJCOSX Opt
%maxcore 4000
%basis
 AuxJ "aug-cc-PVTZ/JK"
 AuxC "aug-cc-PVTZ/C"
 newGTO H "cc-PVTZ" end
 newAuxJGTO H "cc-PVTZ/JK" end
 newAuxCGTO H "cc-PVTZ/C" end
end
%cpcm
 SMD true
 SMDsolvent "chloroform"
end
%pal nprocs 4 end
* xyz 0 1
O          1.32320        2.14340        1.58170
C          0.94890        1.22400        0.91280
O         -0.41520        1.01610        0.72870
C         -0.59080       -0.07210       -0.05610
C         -1.85910       -0.46900       -0.37440
C         -2.25270       -1.61900       -1.20910
O         -1.54000       -2.42770       -1.76880
O         -3.59420       -1.67520       -1.28620
C         -4.12030       -0.63510       -0.55550
C         -5.45560       -0.34970       -0.38830
C         -5.76950        0.75550        0.39470
C         -4.77890        1.53310        0.97930
C         -3.43610        1.23940        0.80640
C         -3.10580        0.13960        0.02760
C          0.70710       -0.61650       -0.41320
O          0.91340       -1.68120       -1.17110
C          1.66570        0.17800        0.18010
C          3.10960        0.05830        0.12880
C          3.93000        0.97070        0.80300
C          5.30400        0.84920        0.74770
C          5.89040       -0.17760        0.02430
C          5.08790       -1.08710       -0.64700
C          3.71310       -0.97520       -0.59870
H         -6.21730       -0.95890       -0.84590
H         -6.80650        1.01110        0.54880
H         -5.06050        2.38360        1.58070
H         -2.66420        1.84010        1.25810
H          0.06180       -2.08660       -1.48290
H          3.48500        1.77260        1.36820
H          5.92340        1.56100        1.27300
H          6.96580       -0.26850       -0.01610
H          5.53840       -1.88950       -1.21250
H          3.09900       -1.68710       -1.12390
*


$new_job
! b2plyp aug-cc-PVTZ RIJCOSX SP
%maxcore 4000
%basis
 AuxJ "aug-cc-PVTZ/JK"
 AuxC "aug-cc-PVTZ/C"
 newGTO H "cc-PVTZ" end
 newAuxJGTO H "cc-PVTZ/JK" end
 newAuxCGTO H "cc-PVTZ/C" end
end
%cpcm
 SMD true
 SMDsolvent "chloroform"
end
%pal nprocs 4 end
%tddft
 nroots 10
 maxdim 7
end
* xyzfile 0 1
