! pbe0 d3bj aug-cc-PVTZ RIJCOSX Opt
%maxcore 4000
%basis
 AuxJ "aug-cc-PVTZ/JK"
 AuxC "aug-cc-PVTZ/C"
 newGTO H "cc-PVTZ" end
 newAuxJGTO H "cc-PVTZ/JK" end
 newAuxCGTO H "cc-PVTZ/C" end
end
%cpcm
 SMD true
 SMDsolvent "n-hexane"
end
%pal nprocs 4 end
* xyz 0 1
F          2.31930       -2.22930       -1.20280
B          2.33850       -1.44100       -0.09150
F          2.56290       -2.17070        1.04280
N          1.16570       -0.45800        0.01230
C          1.60930        0.83910       -0.03740
N          0.62530        1.71670        0.03550
C         -0.49990        0.98150        0.13710
C         -1.79460        1.62520        0.30480
C         -2.80570        1.04390        1.06840
C         -4.01760        1.68960        1.22320
C         -4.23600        2.92100        0.62690
C         -3.22900        3.51320       -0.11780
C         -2.01480        2.87340       -0.27550
C         -0.18010       -0.39620        0.10770
C         -1.04300       -1.56490        0.08760
C         -2.24360       -1.53390       -0.62410
C         -3.05900       -2.64760       -0.66070
C         -2.69070       -3.80490        0.00750
C         -1.49640       -3.84530        0.70740
C         -0.67260       -2.73570        0.74740
C          3.01850        0.90290       -0.17840
C          3.86750        2.00800       -0.26780
C          5.21870        1.78290       -0.40610
C          5.70720        0.47360       -0.45420
C          4.81840       -0.57560       -0.36120
N          3.51820       -0.35340       -0.22920
H         -2.63500        0.09230        1.54950
H         -4.79530        1.23150        1.81700
H         -5.18620        3.42020        0.74840
H         -3.39270        4.47760       -0.57660
H         -1.21980        3.32450       -0.84900
H         -2.52410       -0.63690       -1.15600
H         -3.98460       -2.61480       -1.21660
H         -3.33180       -4.67360       -0.02180
H         -1.20290       -4.74660        1.22480
H          0.25380       -2.77020        1.29770
H          3.44260        2.99680       -0.22440
H          5.90390        2.61400       -0.47710
H          6.76150        0.28120       -0.56210
H          5.12400       -1.61060       -0.39080
*


$new_job
! b2plyp aug-cc-PVTZ RIJCOSX SP
%maxcore 4000
%basis
 AuxJ "aug-cc-PVTZ/JK"
 AuxC "aug-cc-PVTZ/C"
 newGTO H "cc-PVTZ" end
 newAuxJGTO H "cc-PVTZ/JK" end
 newAuxCGTO H "cc-PVTZ/C" end
end
%cpcm
 SMD true
 SMDsolvent "n-hexane"
end
%pal nprocs 4 end
%tddft
 nroots 10
 maxdim 7
end
* xyzfile 0 1
