! pbe0 d3bj aug-cc-PVTZ RIJCOSX Opt
%maxcore 4000
%basis
 AuxJ "aug-cc-PVTZ/JK"
 AuxC "aug-cc-PVTZ/C"
 newGTO H "cc-PVTZ" end
 newAuxJGTO H "cc-PVTZ/JK" end
 newAuxCGTO H "cc-PVTZ/C" end
end
%cpcm
 SMD true
 SMDsolvent "n-hexane"
end
%pal nprocs 4 end
* xyz 0 1
C         -1.61710        2.23640        1.70200
C         -2.24440        1.23530        0.77500
C         -3.60880        1.04460        0.82630
C         -4.25700        0.11440        0.00240
N         -5.61050       -0.09520        0.08820
C         -6.26300       -0.99780       -0.82680
C         -6.43230        0.81360        0.84970
C         -3.45660       -0.59820       -0.89680
C         -2.08450       -0.43710       -0.95550
C         -1.33870       -1.21960       -1.99790
C         -1.44500        0.47790       -0.10300
C         -0.01230        0.69950       -0.10600
C          0.94920       -0.23760       -0.21600
C          2.34270        0.07450       -0.20100
C          3.31210       -0.86020       -0.27080
C          4.73680       -0.63540       -0.25810
C          5.59700       -1.74090       -0.33400
C          6.96430       -1.59020       -0.32490
C          7.52140       -0.31170       -0.23870
C          8.92140       -0.14600       -0.22860
N         10.06120       -0.01140       -0.21980
C          6.68070        0.80230       -0.16280
C          5.31480        0.63900       -0.17250
H         -1.19000        3.06670        1.13890
H         -2.35830        2.63980        2.38770
H         -0.81940        1.77800        2.28430
H         -4.17590        1.63220        1.52970
H         -6.21220       -0.64550       -1.86450
H         -7.31030       -1.09830       -0.55030
H         -5.80680       -1.98840       -0.77140
H         -7.47770        0.53480        0.74180
H         -6.17940        0.76410        1.91230
H         -6.31680        1.84930        0.51070
H         -3.90600       -1.29400       -1.58660
H         -1.98140       -1.40400       -2.85680
H         -1.03050       -2.18810       -1.60360
H         -0.45090       -0.68840       -2.33150
H          0.30380        1.72690        0.03460
H          0.68870       -1.28370       -0.28280
H          2.59560        1.12410       -0.12970
H          3.01190       -1.89910       -0.34280
H          5.17210       -2.73260       -0.40070
H          7.61430       -2.45130       -0.38350
H          7.11440        1.78980       -0.09640
H          4.68400        1.51220       -0.11300
*


$new_job
! b2plyp aug-cc-PVTZ RIJCOSX SP
%maxcore 4000
%basis
 AuxJ "aug-cc-PVTZ/JK"
 AuxC "aug-cc-PVTZ/C"
 newGTO H "cc-PVTZ" end
 newAuxJGTO H "cc-PVTZ/JK" end
 newAuxCGTO H "cc-PVTZ/C" end
end
%cpcm
 SMD true
 SMDsolvent "n-hexane"
end
%pal nprocs 4 end
%tddft
 nroots 10
 maxdim 7
end
* xyzfile 0 1
