! pbe0 d3bj aug-cc-PVTZ RIJCOSX Opt
%maxcore 4000
%basis
 AuxJ "aug-cc-PVTZ/JK"
 AuxC "aug-cc-PVTZ/C"
 newGTO H "cc-PVTZ" end
 newAuxJGTO H "cc-PVTZ/JK" end
 newAuxCGTO H "cc-PVTZ/C" end
end
%cpcm
 SMD true
 SMDsolvent "benzene"
end
%pal nprocs 4 end
* xyz 0 1
C          6.09180        1.72440        0.12990
O          5.73770        0.36450        0.04010
C          4.42540        0.02900        0.02290
C          3.36540        0.93350        0.08420
C          2.06780        0.47230        0.06040
C          1.77360       -0.89360       -0.02460
C          0.37450       -1.29850       -0.04170
N         -0.51860       -0.35420        0.03270
C         -1.84180       -0.65110        0.02460
C         -2.27120       -1.97270       -0.06240
C         -3.63680       -2.30380       -0.07060
C         -4.56590       -1.30760        0.00790
C         -4.18390        0.05350        0.09770
C         -5.13710        1.08720        0.17880
C         -4.74430        2.39620        0.26490
C         -3.38340        2.72730        0.27380
C         -2.43160        1.74470        0.19630
C         -2.80950        0.39590        0.10700
O         -1.36270       -2.97300       -0.14190
C         -0.01910       -2.72480       -0.13920
O          0.71230       -3.68140       -0.21570
C          2.84530       -1.79320       -0.08690
C          4.14220       -1.33740       -0.06330
H          7.18040        1.74550        0.13050
H          5.72110        2.17530        1.05580
H          5.71980        2.29360       -0.72760
H          3.54460        1.99530        0.15040
H          1.24750        1.17020        0.10770
H         -3.91400       -3.34370       -0.13950
H         -5.61880       -1.54810        0.00250
H         -6.18590        0.82780        0.17170
H         -5.48300        3.18170        0.32660
H         -3.08990        3.76440        0.34230
H         -1.37900        1.97840        0.20170
H          2.65620       -2.85110       -0.15340
H          4.97070       -2.02640       -0.11060
*


$new_job
! b2plyp aug-cc-PVTZ RIJCOSX SP
%maxcore 4000
%basis
 AuxJ "aug-cc-PVTZ/JK"
 AuxC "aug-cc-PVTZ/C"
 newGTO H "cc-PVTZ" end
 newAuxJGTO H "cc-PVTZ/JK" end
 newAuxCGTO H "cc-PVTZ/C" end
end
%cpcm
 SMD true
 SMDsolvent "benzene"
end
%pal nprocs 4 end
%tddft
 nroots 10
 maxdim 7
end
* xyzfile 0 1
