! pbe0 d3bj aug-cc-PVTZ RIJCOSX Opt
%maxcore 4000
%basis
 AuxJ "aug-cc-PVTZ/JK"
 AuxC "aug-cc-PVTZ/C"
 newGTO H "cc-PVTZ" end
 newAuxJGTO H "cc-PVTZ/JK" end
 newAuxCGTO H "cc-PVTZ/C" end
end
%cpcm
 SMD true
 SMDsolvent "dichloromethane"
end
%pal nprocs 4 end
* xyz 0 1
C         -2.05810        3.91020        0.86340
O         -3.09020        3.07390        0.40250
C         -2.78530        1.78880        0.04420
C         -1.51130        1.25880        0.12630
C         -1.25920       -0.07410       -0.21430
C          0.09320       -0.57110       -0.10880
C          0.52700       -1.79690       -0.45250
C          1.88850       -2.20820       -0.31790
N          2.36520       -3.38150       -0.65670
C          3.68140       -3.33760       -0.36190
C          3.98780       -2.10380        0.16600
C          5.21650       -1.52180        0.64760
C          5.24490       -0.22020        1.15600
C          6.44960        0.28880        1.60540
N          7.58590       -0.38810        1.58240
C          7.56030       -1.62070        1.10140
C          6.41770       -2.23620        0.62410
O          2.83250       -1.38700        0.18980
C         -2.32580       -0.85780       -0.63230
C         -3.61640       -0.34570       -0.73670
O         -4.52470       -1.26600       -1.15520
C         -5.86840       -0.93080       -1.42440
C         -3.86270        0.99780       -0.41030
O         -5.14730        1.48050       -0.48970
C         -5.35950        2.75230       -1.07040
H         -1.59940        3.51810        1.77640
H         -2.53420        4.86480        1.08330
H         -1.28750        4.05910        0.10030
H         -0.69070        1.86770        0.46900
H          0.81830        0.13180        0.28280
H         -0.12310       -2.55410       -0.85890
H          4.31720       -4.17940       -0.54300
H          4.34170        0.36810        1.19430
H          6.51340        1.29220        2.00650
H          8.51040       -2.13900        1.10070
H          6.45180       -3.24370        0.24240
H         -2.19150       -1.89270       -0.89710
H         -6.37380       -0.53780       -0.54100
H         -5.94940       -0.20920       -2.24100
H         -6.33390       -1.86910       -1.72710
H         -4.70620        2.91100       -1.93240
H         -6.39970        2.75200       -1.39830
H         -5.20500        3.55650       -0.34910
*


$new_job
! b2plyp aug-cc-PVTZ RIJCOSX SP
%maxcore 4000
%basis
 AuxJ "aug-cc-PVTZ/JK"
 AuxC "aug-cc-PVTZ/C"
 newGTO H "cc-PVTZ" end
 newAuxJGTO H "cc-PVTZ/JK" end
 newAuxCGTO H "cc-PVTZ/C" end
end
%cpcm
 SMD true
 SMDsolvent "dichloromethane"
end
%pal nprocs 4 end
%tddft
 nroots 10
 maxdim 7
end
* xyzfile 0 1
