! pbe0 d3bj aug-cc-PVTZ RIJCOSX Opt
%maxcore 4000
%basis
 AuxJ "aug-cc-PVTZ/JK"
 AuxC "aug-cc-PVTZ/C"
 newGTO H "cc-PVTZ" end
 newAuxJGTO H "cc-PVTZ/JK" end
 newAuxCGTO H "cc-PVTZ/C" end
end
%cpcm
 SMD true
 SMDsolvent "ethanol"
end
%pal nprocs 4 end
* xyz 0 1
C          7.22550        1.70300       -1.21380
O          6.44980        0.53420       -0.96740
C          5.28350        0.71640       -0.35670
O          4.85570        1.78340       -0.00010
C          4.56230       -0.59870       -0.13050
N          3.24940       -0.35400        0.41060
C          2.15350       -0.97880       -0.08960
O          2.23550       -1.88660       -0.88920
C          0.83500       -0.47580        0.46380
C         -0.11680       -1.65680        0.73370
N         -1.47410       -1.25830        0.98990
C         -2.30530       -0.73470        0.02210
C         -2.00620       -0.83220       -1.32390
C         -2.87470       -0.33590       -2.29870
C         -4.04680        0.27300       -1.95030
C         -4.40320        0.38920       -0.59200
C         -5.61550        1.00390       -0.21350
C         -5.97800        1.10960        1.09860
C         -5.13720        0.59520        2.09360
C         -3.95330       -0.00370        1.75830
C         -3.53980       -0.12260        0.41500
H          6.71120        2.35420       -1.92290
H          7.38880        2.25190       -0.28460
H          8.16890        1.35790       -1.62770
H          5.16500       -1.21070        0.55280
H          4.45840       -1.14960       -1.07070
H          3.15390        0.51300        0.92100
H          0.37970        0.16730       -0.29450
H          0.99040        0.11370        1.36830
H         -0.08640       -2.33130       -0.12460
H          0.23650       -2.21480        1.60490
H         -1.62460       -0.89390        1.91710
H         -1.09060       -1.29970       -1.64790
H         -2.59790       -0.43390       -3.33860
H         -4.71460        0.66680       -2.70200
H         -6.25780        1.38930       -0.99280
H         -6.90910        1.58150        1.37680
H         -5.43010        0.67090        3.13090
H         -3.34140       -0.40250        2.55530
*


$new_job
! b2plyp aug-cc-PVTZ RIJCOSX SP
%maxcore 4000
%basis
 AuxJ "aug-cc-PVTZ/JK"
 AuxC "aug-cc-PVTZ/C"
 newGTO H "cc-PVTZ" end
 newAuxJGTO H "cc-PVTZ/JK" end
 newAuxCGTO H "cc-PVTZ/C" end
end
%cpcm
 SMD true
 SMDsolvent "ethanol"
end
%pal nprocs 4 end
%tddft
 nroots 10
 maxdim 7
end
* xyzfile 0 1
