! pbe0 d3bj aug-cc-PVTZ RIJCOSX Opt
%maxcore 4000
%basis
 AuxJ "aug-cc-PVTZ/JK"
 AuxC "aug-cc-PVTZ/C"
 newGTO H "cc-PVTZ" end
 newAuxJGTO H "cc-PVTZ/JK" end
 newAuxCGTO H "cc-PVTZ/C" end
end
%cpcm
 SMD true
 SMDsolvent "chloroform"
end
%pal nprocs 4 end
* xyz 0 1
C          5.18620       -1.20420        1.13640
N          5.96540       -0.08430        0.65530
C          6.12080        0.93800        1.66640
C          5.57490        0.41710       -0.64170
C          4.18270        1.06820       -0.76010
N          3.14370        0.07020       -0.75190
C          1.81980        0.30860       -0.58930
C          1.33490        1.59600       -0.36970
C         -0.01370        1.83540       -0.17960
C         -0.93670        0.80320       -0.20840
C         -0.48990       -0.51550       -0.42680
C         -1.42040       -1.57540       -0.45740
C         -0.99860       -2.87350       -0.65750
C          0.35640       -3.14660       -0.82270
C          1.27810       -2.12760       -0.80030
C          0.89140       -0.78850       -0.61210
C         -2.85890       -1.31420       -0.27710
O         -3.69700       -2.19220       -0.32730
N         -3.21710        0.00410       -0.05290
C         -4.60840        0.27260        0.15220
C         -5.29810        1.06890       -0.74680
C         -6.63810        1.33630       -0.54020
C         -7.29680        0.80110        0.56030
O         -8.61460        1.03800        0.79830
C         -6.59950       -0.00390        1.45620
C         -5.25960       -0.26190        1.25440
C         -2.35180        1.09780       -0.00500
O         -2.78170        2.21520        0.20450
H          5.15570       -1.97720        0.36930
H          4.15810       -0.93630        1.41970
H          5.68410       -1.61730        2.01340
H          6.65300        0.50740        2.51420
H          5.16590        1.34180        2.03480
H          6.71680        1.75520        1.26400
H          6.31940        1.16230       -0.93520
H          5.64030       -0.41350       -1.35270
H          4.14970        1.65760       -1.68800
H          4.03340        1.75090        0.08030
H          3.41560       -0.83340       -1.10230
H          2.01660        2.43070       -0.36060
H         -0.37350        2.83950       -0.01350
H         -1.73580       -3.66160       -0.67760
H          0.68340       -4.16520       -0.96780
H          2.32080       -2.38500       -0.92190
H         -4.78660        1.48530       -1.60070
H         -7.17700        1.96260       -1.23890
H         -8.97280        1.60990        0.10870
H         -7.12430       -0.41270        2.30450
H         -4.71630       -0.88440        1.94820
*


$new_job
! b2plyp aug-cc-PVTZ RIJCOSX SP
%maxcore 4000
%basis
 AuxJ "aug-cc-PVTZ/JK"
 AuxC "aug-cc-PVTZ/C"
 newGTO H "cc-PVTZ" end
 newAuxJGTO H "cc-PVTZ/JK" end
 newAuxCGTO H "cc-PVTZ/C" end
end
%cpcm
 SMD true
 SMDsolvent "chloroform"
end
%pal nprocs 4 end
%tddft
 nroots 10
 maxdim 7
end
* xyzfile 0 1
