! pbe0 d3bj aug-cc-PVTZ RIJCOSX Opt
%maxcore 4000
%basis
 AuxJ "aug-cc-PVTZ/JK"
 AuxC "aug-cc-PVTZ/C"
 newGTO H "cc-PVTZ" end
 newAuxJGTO H "cc-PVTZ/JK" end
 newAuxCGTO H "cc-PVTZ/C" end
end
%cpcm
 SMD true
 SMDsolvent "cyclohexane"
end
%pal nprocs 4 end
* xyz 0 1
C          5.45720        0.20520       -0.21430
O          4.08180        0.47780       -0.44440
C          3.22130       -0.28600        0.22030
O          3.53580       -1.16540        0.98100
C          1.81840        0.07590       -0.08780
N          1.48860        1.03000       -0.92490
O          0.15350        1.08870       -0.96740
C         -0.39520        0.16650       -0.15260
C         -1.84020        0.08720       -0.07310
C         -2.61160        0.96620       -0.83890
C         -3.98990        0.91160       -0.78160
C         -4.61760       -0.01540        0.03590
C         -3.85830       -0.88910        0.79730
C         -2.47800       -0.84370        0.74800
C          0.64520       -0.52450        0.44820
Cl         0.61430       -1.79830        1.56950
H          5.69880        0.33470        0.84290
H          5.69510       -0.82060       -0.50420
H          6.01090        0.91400       -0.82370
H         -2.11760        1.68550       -1.47330
H         -4.57830        1.59400       -1.37640
H         -5.69570       -0.05640        0.07920
H         -4.34510       -1.61190        1.43470
H         -1.89370       -1.52560        1.34220
*


$new_job
! b2plyp aug-cc-PVTZ RIJCOSX SP
%maxcore 4000
%basis
 AuxJ "aug-cc-PVTZ/JK"
 AuxC "aug-cc-PVTZ/C"
 newGTO H "cc-PVTZ" end
 newAuxJGTO H "cc-PVTZ/JK" end
 newAuxCGTO H "cc-PVTZ/C" end
end
%cpcm
 SMD true
 SMDsolvent "cyclohexane"
end
%pal nprocs 4 end
%tddft
 nroots 10
 maxdim 7
end
* xyzfile 0 1
