! pbe0 d3bj aug-cc-PVTZ RIJCOSX Opt
%maxcore 4000
%basis
 AuxJ "aug-cc-PVTZ/JK"
 AuxC "aug-cc-PVTZ/C"
 newGTO H "cc-PVTZ" end
 newAuxJGTO H "cc-PVTZ/JK" end
 newAuxCGTO H "cc-PVTZ/C" end
end
%cpcm
 SMD true
 SMDsolvent "n-hexane"
end
%pal nprocs 4 end
* xyz 0 1
C         -4.51230       -2.09990       -1.83120
O         -3.75650       -1.20750       -1.03830
C         -2.43870       -1.28420       -1.11490
C         -1.61170       -2.14010       -1.87920
C         -0.31390       -1.79360       -1.59070
C         -0.35410       -0.73870       -0.64870
N         -1.68460       -0.45340       -0.39040
B         -2.19600        0.67560        0.53690
F         -2.94870        1.57820       -0.17890
F         -2.92710        0.15220        1.57870
N         -0.93180        1.38020        1.09830
C         -0.90820        2.39230        1.97470
S         -2.40150        3.08810        2.55780
C         -1.72200        4.27810        3.53890
N         -1.28930        5.09870        4.21270
C          0.41480        2.73080        2.29380
C          1.21820        1.87530        1.57050
C          0.37120        1.03620        0.81700
C          0.67650       -0.01580       -0.05850
C          2.07700       -0.34610       -0.34700
C          2.54470       -1.64790       -0.17960
C          3.86590       -1.95460       -0.44760
C          4.73300       -0.97120       -0.89470
C          4.27420        0.32420       -1.06830
C          2.95660        0.63880       -0.79190
H         -4.30800       -1.95220       -2.89540
H         -5.55450       -1.86680       -1.62370
H         -4.30760       -3.13950       -1.56010
H         -1.94250       -2.90350       -2.55450
H          0.57730       -2.22290       -2.00410
H          0.71540        3.50330        2.97260
H          2.28910        1.83500        1.58130
H          1.87230       -2.40820        0.18860
H          4.22100       -2.96430       -0.30460
H          5.76350       -1.21350       -1.10650
H          4.94530        1.09280       -1.42180
H          2.59280        1.64370       -0.94500
*


$new_job
! b2plyp aug-cc-PVTZ RIJCOSX SP
%maxcore 4000
%basis
 AuxJ "aug-cc-PVTZ/JK"
 AuxC "aug-cc-PVTZ/C"
 newGTO H "cc-PVTZ" end
 newAuxJGTO H "cc-PVTZ/JK" end
 newAuxCGTO H "cc-PVTZ/C" end
end
%cpcm
 SMD true
 SMDsolvent "n-hexane"
end
%pal nprocs 4 end
%tddft
 nroots 10
 maxdim 7
end
* xyzfile 0 1
