! pbe0 d3bj aug-cc-PVTZ RIJCOSX Opt
%maxcore 4000
%basis
 AuxJ "aug-cc-PVTZ/JK"
 AuxC "aug-cc-PVTZ/C"
 newGTO H "cc-PVTZ" end
 newAuxJGTO H "cc-PVTZ/JK" end
 newAuxCGTO H "cc-PVTZ/C" end
end
%cpcm
 SMD true
 SMDsolvent "ethyl ethanoate"
end
%pal nprocs 4 end
* xyz 0 1
C         -7.52060        0.40260        0.66450
C         -6.32580        0.97600       -0.08880
N         -5.35300       -0.05480       -0.40220
C         -4.70740       -0.58400        0.78980
C         -3.37680       -1.25340        0.46230
N         -2.44620       -0.27700       -0.06450
C         -1.10450       -0.38710        0.09760
C         -0.51240       -1.59270        0.52900
C          0.84300       -1.69530        0.69580
C          1.68670       -0.60170        0.44520
N          3.02310       -0.80590        0.62270
N          3.80340        0.17690        0.51320
C          5.14490        0.10000        0.44250
C          5.78130       -0.74260       -0.49490
C          7.13490       -0.66390       -0.69150
C          7.89260        0.25000        0.04390
N          9.29680        0.32200       -0.15310
O          9.93320        1.10980        0.52840
O          9.79680       -0.40680       -0.99520
C          7.27780        1.09120        0.97680
C          5.92320        1.02750        1.16520
C          1.10430        0.60370        0.01130
C         -0.24890        0.70720       -0.15800
C         -3.04960        0.80530       -0.81360
C         -4.37590        0.32090       -1.40860
H         -8.30430        1.15240        0.73240
H         -7.24730        0.10200        1.67210
H         -7.90710       -0.46270        0.13350
H         -5.88120        1.79780        0.50280
H         -6.67880        1.39170       -1.03540
H         -4.52470        0.21210        1.53330
H         -5.36990       -1.32460        1.24610
H         -3.54270       -2.07030       -0.25170
H         -2.97070       -1.67410        1.38470
H         -1.12590       -2.46130        0.70560
H          1.28950       -2.62390        1.01580
H          5.17430       -1.43880       -1.05360
H          7.63800       -1.30960       -1.39540
H          7.89010        1.78550        1.53170
H          5.43360        1.66430        1.88540
H          1.74980        1.44930       -0.17510
H         -0.66450        1.65330       -0.46660
H         -2.38420        1.10380       -1.62710
H         -3.22810        1.67890       -0.17090
H         -4.79160        1.10020       -2.04870
H         -4.17520       -0.55370       -2.03850
*


$new_job
! b2plyp aug-cc-PVTZ RIJCOSX SP
%maxcore 4000
%basis
 AuxJ "aug-cc-PVTZ/JK"
 AuxC "aug-cc-PVTZ/C"
 newGTO H "cc-PVTZ" end
 newAuxJGTO H "cc-PVTZ/JK" end
 newAuxCGTO H "cc-PVTZ/C" end
end
%cpcm
 SMD true
 SMDsolvent "ethyl ethanoate"
end
%pal nprocs 4 end
%tddft
 nroots 10
 maxdim 7
end
* xyzfile 0 1
