! pbe0 d3bj aug-cc-PVTZ RIJCOSX Opt
%maxcore 4000
%basis
 AuxJ "aug-cc-PVTZ/JK"
 AuxC "aug-cc-PVTZ/C"
 newGTO H "cc-PVTZ" end
 newAuxJGTO H "cc-PVTZ/JK" end
 newAuxCGTO H "cc-PVTZ/C" end
end
%cpcm
 SMD true
 SMDsolvent "cyclohexane"
end
%pal nprocs 4 end
* xyz 0 1
C         -0.81160       -0.93470        1.69790
C         -0.37050       -0.17580        0.48320
C         -1.19370        0.42270       -0.39900
C         -2.64210        0.51690       -0.34980
C         -3.35540        0.48940       -1.55240
C         -4.73270        0.56260       -1.57040
C         -5.42210        0.69150       -0.37360
Cl        -7.14770        0.78670       -0.38550
C         -4.73800        0.75990        0.82960
C         -3.35930        0.67090        0.83830
C          1.05610       -0.15710        0.26750
N          1.90660       -0.74410        1.02960
C          3.19050       -0.57740        0.62230
C          4.32170       -1.09740        1.24810
C          5.56060       -0.83610        0.70520
C          5.69390       -0.06640       -0.44980
C          4.58800        0.45990       -1.08810
C          3.33970        0.20250       -0.54870
S          1.78090        0.71570       -1.11040
H         -1.82160       -1.31520        1.57150
H         -0.12530       -1.75970        1.87030
H         -0.77780       -0.29470        2.57870
H         -0.74860        0.86000       -1.28570
H         -2.81650        0.39110       -2.48330
H         -5.27320        0.52590       -2.50330
H         -5.28310        0.88510        1.75220
H         -2.83470        0.76430        1.77490
H          4.20480       -1.69090        2.14060
H          6.44570       -1.23240        1.17990
H          6.67760        0.12160       -0.85280
H          4.68780        1.05540       -1.98220
*


$new_job
! b2plyp aug-cc-PVTZ RIJCOSX SP
%maxcore 4000
%basis
 AuxJ "aug-cc-PVTZ/JK"
 AuxC "aug-cc-PVTZ/C"
 newGTO H "cc-PVTZ" end
 newAuxJGTO H "cc-PVTZ/JK" end
 newAuxCGTO H "cc-PVTZ/C" end
end
%cpcm
 SMD true
 SMDsolvent "cyclohexane"
end
%pal nprocs 4 end
%tddft
 nroots 10
 maxdim 7
end
* xyzfile 0 1
