! pbe0 d3bj aug-cc-PVTZ RIJCOSX Opt
%maxcore 4000
%basis
 AuxJ "aug-cc-PVTZ/JK"
 AuxC "aug-cc-PVTZ/C"
 newGTO H "cc-PVTZ" end
 newAuxJGTO H "cc-PVTZ/JK" end
 newAuxCGTO H "cc-PVTZ/C" end
end
%cpcm
 SMD true
 SMDsolvent "n-hexane"
end
%pal nprocs 4 end
* xyz 0 1
O         -0.58810        0.76380        1.81780
C          0.43530        0.55130        1.21130
N          1.53550        1.36970        1.20350
C          2.56560        0.84580        0.43970
C          3.82150        1.35920        0.19340
C          4.67150        0.61970       -0.62030
C          4.27370       -0.59070       -1.16690
C          3.00900       -1.10500       -0.91670
C          2.15130       -0.38180       -0.10860
C          0.78980       -0.61950        0.34270
C         -0.01070       -1.66250        0.09260
C         -1.37410       -1.82890        0.66630
O         -1.62760       -2.77720        1.37670
C         -2.37960       -0.80700        0.30060
C         -3.52340       -0.69080        1.08910
C         -4.48690        0.25180        0.79640
C         -4.31300        1.07560       -0.30620
Cl        -5.51150        2.25660       -0.68430
C         -3.19050        0.96190       -1.11440
C         -2.22520        0.02390       -0.80750
H          1.58720        2.23190        1.72180
H          4.13610        2.30040        0.61720
H          5.66110        0.99760       -0.82800
H          4.95790       -1.14150       -1.79370
H          2.70530       -2.04930       -1.34130
H          0.35640       -2.50440       -0.48090
H         -3.62980       -1.34320        1.94220
H         -5.36550        0.35410        1.41390
H         -3.07780        1.60690       -1.97210
H         -1.35340       -0.06830       -1.43860
*


$new_job
! b2plyp aug-cc-PVTZ RIJCOSX SP
%maxcore 4000
%basis
 AuxJ "aug-cc-PVTZ/JK"
 AuxC "aug-cc-PVTZ/C"
 newGTO H "cc-PVTZ" end
 newAuxJGTO H "cc-PVTZ/JK" end
 newAuxCGTO H "cc-PVTZ/C" end
end
%cpcm
 SMD true
 SMDsolvent "n-hexane"
end
%pal nprocs 4 end
%tddft
 nroots 10
 maxdim 7
end
* xyzfile 0 1
