! pbe0 d3bj aug-cc-PVTZ RIJCOSX Opt
%maxcore 4000
%basis
 AuxJ "aug-cc-PVTZ/JK"
 AuxC "aug-cc-PVTZ/C"
 newGTO H "cc-PVTZ" end
 newAuxJGTO H "cc-PVTZ/JK" end
 newAuxCGTO H "cc-PVTZ/C" end
end
%cpcm
 SMD true
 SMDsolvent "acetonitrile"
end
%pal nprocs 4 end
* xyz 0 1
N         -1.32600        2.46580        0.14660
C         -1.61200        1.13260       -0.02980
C         -2.95220        0.72550       -0.16020
C         -3.30790       -0.59680       -0.31100
C         -2.33390       -1.59040       -0.35320
C         -1.01810       -1.20690       -0.21260
C         -0.63650        0.13610       -0.03050
C          0.82060        0.18170        0.11540
C          1.70700        1.21010        0.37850
C          3.06690        0.92430        0.46380
C          3.54730       -0.36280        0.30140
C          2.66600       -1.41070        0.06120
C          1.31930       -1.12970       -0.02650
C          0.19100       -2.06810       -0.23690
O          0.24310       -3.26700       -0.39380
H         -2.06800        3.10870       -0.07990
H         -0.40730        2.77420       -0.12200
H         -3.71920        1.48780       -0.14420
H         -4.35070       -0.85900       -0.40850
H         -2.58910       -2.62920       -0.48930
H          1.37700        2.22470        0.54340
H          3.75940        1.72880        0.66660
H          4.60750       -0.55400        0.37280
H          3.01550       -2.42590       -0.05140
*


$new_job
! b2plyp aug-cc-PVTZ RIJCOSX SP
%maxcore 4000
%basis
 AuxJ "aug-cc-PVTZ/JK"
 AuxC "aug-cc-PVTZ/C"
 newGTO H "cc-PVTZ" end
 newAuxJGTO H "cc-PVTZ/JK" end
 newAuxCGTO H "cc-PVTZ/C" end
end
%cpcm
 SMD true
 SMDsolvent "acetonitrile"
end
%pal nprocs 4 end
%tddft
 nroots 10
 maxdim 7
end
* xyzfile 0 1
