! pbe0 d3bj aug-cc-PVTZ RIJCOSX Opt
%maxcore 4000
%basis
 AuxJ "aug-cc-PVTZ/JK"
 AuxC "aug-cc-PVTZ/C"
 newGTO H "cc-PVTZ" end
 newAuxJGTO H "cc-PVTZ/JK" end
 newAuxCGTO H "cc-PVTZ/C" end
end
%cpcm
 SMD true
 SMDsolvent "methanol"
end
%pal nprocs 4 end
* xyz 0 1
O         -1.78190       -2.77770       -0.71150
C         -1.57790       -1.61770       -0.38320
C         -0.25020       -1.04690       -0.35340
C         -0.00110        0.24350       -0.01470
N          1.20480        0.86370        0.03600
C          2.49080        0.36200       -0.04070
C          2.86030       -0.92270        0.35690
C          4.17780       -1.33410        0.26820
C          5.15940       -0.47990       -0.20510
C          4.82440        0.81220       -0.57680
C          3.50970        1.21230       -0.48710
F          3.17550        2.47630       -0.83930
C         -1.11460        1.19080        0.30110
O         -0.86930        2.36360        0.52330
C         -2.46810        0.62710        0.32480
C         -3.54200        1.44720        0.66690
C         -4.82760        0.93890        0.69780
C         -5.05280       -0.39270        0.38250
C         -3.99260       -1.21390        0.03690
C         -2.69580       -0.71720        0.00610
H          0.54620       -1.71040       -0.65380
H          1.11910        1.87780        0.11060
H          2.11850       -1.58630        0.76870
H          4.43930       -2.33310        0.58110
H          6.18340       -0.81020       -0.27540
H          5.56530        1.50920       -0.93480
H         -3.34340        2.48120        0.90670
H         -5.65420        1.57940        0.96650
H         -6.05650       -0.79060        0.40440
H         -4.14710       -2.25220       -0.21690
*


$new_job
! b2plyp aug-cc-PVTZ RIJCOSX SP
%maxcore 4000
%basis
 AuxJ "aug-cc-PVTZ/JK"
 AuxC "aug-cc-PVTZ/C"
 newGTO H "cc-PVTZ" end
 newAuxJGTO H "cc-PVTZ/JK" end
 newAuxCGTO H "cc-PVTZ/C" end
end
%cpcm
 SMD true
 SMDsolvent "methanol"
end
%pal nprocs 4 end
%tddft
 nroots 10
 maxdim 7
end
* xyzfile 0 1
