! pbe0 d3bj aug-cc-PVTZ RIJCOSX Opt
%maxcore 4000
%basis
 AuxJ "aug-cc-PVTZ/JK"
 AuxC "aug-cc-PVTZ/C"
 newGTO H "cc-PVTZ" end
 newAuxJGTO H "cc-PVTZ/JK" end
 newAuxCGTO H "cc-PVTZ/C" end
end
%cpcm
 SMD true
 SMDsolvent "chloroform"
end
%pal nprocs 4 end
* xyz 0 1
O         -1.24220        3.25390        1.58860
C         -0.39480        2.82510        0.84430
C         -0.41050        1.49420        0.22890
C         -1.38300        0.62780        0.57350
C         -1.43920       -0.74180        0.14820
C         -2.53470       -1.56570        0.08910
O         -2.18090       -2.81060       -0.25470
C         -0.84950       -2.83320       -0.38090
C         -0.31420       -1.58740       -0.16590
C          1.07260       -1.21810       -0.11800
C          1.52840        0.03210       -0.32560
C          2.94730        0.33440       -0.14050
O          3.44780        1.42330       -0.27870
C          0.64260        1.15650       -0.78930
H          0.48690        3.43600        0.57240
H         -2.16210        0.97020        1.24220
H         -3.57680       -1.36750        0.24360
H         -0.38980       -3.76480       -0.64660
H          1.77080       -2.00940        0.12390
H          3.55810       -0.54250        0.15130
H          0.15190        0.86030       -1.72170
H          1.27140        2.02730       -0.98410
*


$new_job
! b2plyp aug-cc-PVTZ RIJCOSX SP
%maxcore 4000
%basis
 AuxJ "aug-cc-PVTZ/JK"
 AuxC "aug-cc-PVTZ/C"
 newGTO H "cc-PVTZ" end
 newAuxJGTO H "cc-PVTZ/JK" end
 newAuxCGTO H "cc-PVTZ/C" end
end
%cpcm
 SMD true
 SMDsolvent "chloroform"
end
%pal nprocs 4 end
%tddft
 nroots 10
 maxdim 7
end
* xyzfile 0 1
