! pbe0 d3bj aug-cc-PVTZ RIJCOSX Opt
%maxcore 4000
%basis
 AuxJ "aug-cc-PVTZ/JK"
 AuxC "aug-cc-PVTZ/C"
 newGTO H "cc-PVTZ" end
 newAuxJGTO H "cc-PVTZ/JK" end
 newAuxCGTO H "cc-PVTZ/C" end
end
%cpcm
 SMD true
 SMDsolvent "n-hexane"
end
%pal nprocs 4 end
* xyz 0 1
C         -4.63570        1.30060       -1.79860
C         -3.67840        0.74760       -0.79580
C         -4.13450        0.25390        0.41440
C         -3.21680       -0.25570        1.33000
C         -3.70280       -0.78040        2.65800
F         -2.75830       -1.40390        3.35890
F         -4.72000       -1.64910        2.50610
F         -4.17960        0.21130        3.43540
N         -1.91880       -0.30180        1.12320
C         -1.46570        0.16680       -0.03340
C         -2.28970        0.71220       -1.04960
C         -1.68280        1.18790       -2.25150
C         -0.33870        1.12430       -2.43070
C          0.47710        0.57970       -1.41660
N          1.77720        0.41970       -1.37070
C          2.05430       -0.15280       -0.16700
C          3.42010       -0.46820        0.21380
C          3.72510       -1.05840        1.43990
C          5.03460       -1.34410        1.77400
C          6.05310       -1.04300        0.88630
F          7.32550       -1.32240        1.21700
C          5.75710       -0.45510       -0.33850
F          6.74560       -0.16270       -1.20130
C          4.45120       -0.16850       -0.67590
C          0.88360       -0.34830        0.54490
N         -0.11810        0.11600       -0.24620
H         -5.65460        1.23870       -1.42730
H         -4.40420        2.34370       -2.00970
H         -4.57060        0.74520       -2.73300
H         -5.18580        0.25680        0.65520
H         -2.31180        1.60270       -3.02170
H          0.14010        1.47770       -3.32850
H          2.93730       -1.29580        2.13610
H          5.28520       -1.80000        2.71860
H          4.22030        0.28730       -1.62480
H          0.67960       -0.76180        1.50930
*


$new_job
! b2plyp aug-cc-PVTZ RIJCOSX SP
%maxcore 4000
%basis
 AuxJ "aug-cc-PVTZ/JK"
 AuxC "aug-cc-PVTZ/C"
 newGTO H "cc-PVTZ" end
 newAuxJGTO H "cc-PVTZ/JK" end
 newAuxCGTO H "cc-PVTZ/C" end
end
%cpcm
 SMD true
 SMDsolvent "n-hexane"
end
%pal nprocs 4 end
%tddft
 nroots 10
 maxdim 7
end
* xyzfile 0 1
