! pbe0 d3bj aug-cc-PVTZ RIJCOSX Opt
%maxcore 4000
%basis
 AuxJ "aug-cc-PVTZ/JK"
 AuxC "aug-cc-PVTZ/C"
 newGTO H "cc-PVTZ" end
 newAuxJGTO H "cc-PVTZ/JK" end
 newAuxCGTO H "cc-PVTZ/C" end
end
%cpcm
 SMD true
 SMDsolvent "ethanol"
end
%pal nprocs 4 end
* xyz 0 1
C          6.66700        0.83600       -1.73900
O          5.97710        0.65360       -0.50700
C          4.74810        0.15570       -0.58770
O          4.19640       -0.13580       -1.61770
C          4.12610       -0.03470        0.78760
C          4.83280       -1.18650        1.51400
N          2.71750       -0.29870        0.61350
C          1.78120        0.16630        1.47140
O          2.06790        0.76910        2.48370
C          0.35530       -0.17090        1.06990
C         -0.63220        0.84230        1.67110
N         -2.01170        0.49170        1.45980
C         -2.63080        0.53180        0.23080
C         -2.08620        1.22180       -0.83640
C         -2.73970        1.29460       -2.06800
C         -3.94130        0.67420       -2.26170
C         -4.54540       -0.03460       -1.20440
C         -5.79120       -0.67250       -1.38290
C         -6.39260       -1.35280       -0.36320
C         -5.76860       -1.41870        0.88880
C         -4.55880       -0.81220        1.09230
C         -3.90220       -0.10830        0.06140
H          7.62540        1.28140       -1.48620
H          6.09730        1.49470       -2.39710
H          6.80880       -0.12440       -2.23850
H          4.23470        0.88170        1.37850
H          5.88910       -0.96080        1.62780
H          4.72080       -2.11180        0.95280
H          4.38700       -1.31220        2.49690
H          2.46080       -0.72210       -0.26700
H          0.12620       -1.16870        1.45590
H          0.25920       -0.19890       -0.01610
H         -0.45650        0.90280        2.74750
H         -0.43980        1.83340        1.25470
H         -2.34690       -0.22720        2.08060
H         -1.13820        1.72480       -0.73220
H         -2.27290        1.84500       -2.87240
H         -4.44400        0.72000       -3.21630
H         -6.26400       -0.60710       -2.35280
H         -7.34690       -1.83700       -0.51130
H         -6.24960       -1.95030        1.69710
H         -4.11910       -0.87440        2.07790
*


$new_job
! b2plyp aug-cc-PVTZ RIJCOSX SP
%maxcore 4000
%basis
 AuxJ "aug-cc-PVTZ/JK"
 AuxC "aug-cc-PVTZ/C"
 newGTO H "cc-PVTZ" end
 newAuxJGTO H "cc-PVTZ/JK" end
 newAuxCGTO H "cc-PVTZ/C" end
end
%cpcm
 SMD true
 SMDsolvent "ethanol"
end
%pal nprocs 4 end
%tddft
 nroots 10
 maxdim 7
end
* xyzfile 0 1
